
 ANSYS Mechanical Enterprise                       


 *------------------------------------------------------------------*
 |                                                                  |
 |   W E L C O M E   T O   T H E   A N S Y S (R)  P R O G R A M     |
 |                                                                  |
 *------------------------------------------------------------------*




 ***************************************************************
 *            ANSYS 2021 R1          LEGAL NOTICES             *
 ***************************************************************
 *                                                             *
 * Copyright 1971-2021 ANSYS, Inc.  All rights reserved.       *
 * Unauthorized use, distribution or duplication is            *
 * prohibited.                                                 *
 *                                                             *
 * Ansys is a registered trademark of ANSYS, Inc. or its       *
 * subsidiaries in the United States or other countries.       *
 * See the ANSYS, Inc. online documentation or the ANSYS, Inc. *
 * documentation CD or online help for the complete Legal      *
 * Notice.                                                     *
 *                                                             *
 ***************************************************************
 *                                                             *
 * THIS ANSYS SOFTWARE PRODUCT AND PROGRAM DOCUMENTATION       *
 * INCLUDE TRADE SECRETS AND CONFIDENTIAL AND PROPRIETARY      *
 * PRODUCTS OF ANSYS, INC., ITS SUBSIDIARIES, OR LICENSORS.    *
 * The software products and documentation are furnished by    *
 * ANSYS, Inc. or its subsidiaries under a software license    *
 * agreement that contains provisions concerning               *
 * non-disclosure, copying, length and nature of use,          *
 * compliance with exporting laws, warranties, disclaimers,    *
 * limitations of liability, and remedies, and other           *
 * provisions.  The software products and documentation may be *
 * used, disclosed, transferred, or copied only in accordance  *
 * with the terms and conditions of that software license      *
 * agreement.                                                  *
 *                                                             *
 * ANSYS, Inc. is a UL registered                              *
 * ISO 9001:2015 company.                                      *
 *                                                             *
 ***************************************************************
 *                                                             *
 * This product is subject to U.S. laws governing export and   *
 * re-export.                                                  *
 *                                                             *
 * For U.S. Government users, except as specifically granted   *
 * by the ANSYS, Inc. software license agreement, the use,     *
 * duplication, or disclosure by the United States Government  *
 * is subject to restrictions stated in the ANSYS, Inc.        *
 * software license agreement and FAR 12.212 (for non-DOD      *
 * licenses).                                                  *
 *                                                             *
 ***************************************************************

 2021 R1 
     
 Point Releases and Patches installed:   
     
 ANSYS, Inc. Products 2021 R1
 SpaceClaim 2021 R1  
 Discovery 2021 R1   
 ANSYS Sherlock 2021 R1  
 Autodyn 2021 R1 
 LS-DYNA 2021 R1 
 CFX (includes CFD-Post) 2021 R1 
 Chemkin 2021 R1 
 EnSight 2021 R1 
 FENSAP-ICE 2021 R1  
 Fluent (includes CFD-Post) 2021 R1  
 Forte (includes EnSight) 2021 R1
 Polyflow (includes CFD-Post) 2021 R1
 TurboGrid 2021 R1   
 ICEM CFD 2021 R1
 Aqwa 2021 R1
 SPEOS 2021 R1   
 Customization Files for User Programmable Features 2021 R1  
 Mechanical Products 2021 R1 
 Additive 2021 R1
 Icepak (includes CFD-Post) 2021 R1  
 ACIS Geometry Interface 2021 R1 
 AutoCAD Geometry Interface 2021 R1  
 Catia, Version 4 Geometry Interface 2021 R1 
 Catia, Version 5 Geometry Interface 2021 R1 
 Catia, Version 6 Geometry Interface 2021 R1 
 Creo Elements/Direct Modeling Geometry Interface 2021 R1
 Creo Parametric Geometry Interface 2021 R1  
 Inventor Geometry Interface 2021 R1 
 JTOpen Geometry Interface 2021 R1   
 NX Geometry Interface 2021 R1   
 Parasolid Geometry Interface  2021 R1   
 Solid Edge Geometry Interface 2021 R1   
 SOLIDWORKS Geometry Interface 2021 R1   
 ANSYS, Inc. License Manager 2021 R1 


          *****  ANSYS COMMAND LINE ARGUMENTS  *****
  INITIAL JOBNAME              = file                                                                                                                                                                                                                                                    
  BATCH MODE REQUESTED (-b)    = LIST
  INPUT FILE COPY MODE (-c)    = COPY
  SHARED MEMORY PARALLEL REQUESTED
    SINGLE PROCESS WITH   2 THREADS REQUESTED
    TOTAL OF     2 CORES REQUESTED
  INPUT FILE NAME              = D:\GUO_ETAL\GUO_D1_10RE\Script_3D_DUPLO_2023.txt
  OUTPUT FILE NAME             = D:\GUO_ETAL\GUO_D1_10RE\file.out
  START-UP FILE MODE           = READ  
  STOP FILE MODE               = READ  
  LANGUAGE                     = en-us               
  INITIAL DIRECTORY = D:\GUO_ETAL\GUO_D1_10RE

 User Link path (ANS_USER_PATH): C:\usermat                                                                                                                                                                                                                                              

 RELEASE= 2021 R1              BUILD= 21.1      UP20201109   VERSION=WINDOWS x64 
 CURRENT JOBNAME=file  16:27:59  APR 02, 2024 CP=      0.281
 Note - This ANSYS version was linked by Licensee
     1  !************************************************************!  
     2  !** PROGRAMA ANÁLISE TUNEL DUPLO (MODELO 3D) 		   **!  
     3  !** Versão: 2023.17 					   **!
     4  !** 							   **!   
     5  !** Objetivo: faz análise da convergência de túneis 	   **!  
     6  !** profundos com seção circular dupla (gêmeos)		   **!  
     7  !** com/sem galerias transversais			   **!  
     8  !** considerando um modelo 3D 				   **!
     9  !** 							   **!   
    10  !** Programador: Felipe Quevedo e Carlos Alberto	   **! 
    11  !** Situação : OK (11/07/2020) 				   **! 
    12  !** Unidades : [F/A, L, t] = MPa, m, dias		   **!   
    13  !** 							   **!   
    14  !************************************************************!  
    15  !   
    16  !************************************************************!  
    17  !****_ 1. INICIALIZANDO O ANSYS 		        _****!
    18  !************************************************************!  
    19  FINISH  
    20  /CLEAR,NOSTART  
    21  !   
    22  !************************************************************!  
    23  !****_ 2. DADOS DE ENTRADA DO PROBLEMA 			_****!
    24  !************************************************************!  
    25  !   
    26  ! Nessa seção define-se todos os dados de entrada necessarios 
    27  !   
    28  !************************************************************!  
    29  !****_ 		2.1 Parâmetros geométricos		_****!   
    30  !************************************************************!  
    31  ! referente aos tuneis longitudinais
    32  Re 		= 4 		! [m] raio da interface entre o túnel e o maciço   
    33  esp		= 0.4		! [m] espessura do revestimento 
    34  Lp 		= 1/3*Re 	! [m] comprimento do passo de escavação
    35  nd0 		= 2 		! [Lp] número de passos que representam a dimensão não suportada 
    36  npi 		= 3 		! [Lp] número de passos escavados na primeira escavação  
    37  Vp 		= 12.5 		! [m/dia] velocidade do passo de escavação  
    38  revested0 	= 0 		! 0 - não reveste ultimo d0+Lp, 1 - reveste ultimo d0+Lp  
    39  revesteface 	= 0 		! 0 - não reveste a face, 1 - reveste a face
    40  !   
    41  ! referente as galeiras transversais
    42  Re1 		= 2*Lp 		! [m] raio externo da galeria (deve multiplo de Lp)  
    43  esp1		= 0.4		! [m] espessura do revestimento
    44  !Lp1 		= 1/3*re1 	! [m] passo de escavação das galerias transversais (tem que ser multiplo de (d1/2+re))  
    45  nd01 		= 2 		! [Lp1] dimensão não suportada (deve ser multiplo de Lp1)
    46  npi1 		= 3 		! [un] numero de passos escavados na primeira escavação  
    47  Vp1 		= 12.5 		! [m/dia] velocidade de escavação  
    48  escavagaleria 	= 0 		! escavação das galerias: 0 - não escava, 1 - escava
    49  revestegaleria 	= 0 		! revestimento da galeria: 0 - não reveste, 1 - reveste  
    50  pig1 		= 15 		! [un] numero de passos de escavação a partir da galeria no qual iniciará a escavação da galeria 
    51  !   
    52  ! referente ao restante do domínio 
    53  l1 		= 10 		! [Re] comprimento do trecho não escavado (deve ser suficiente para captar os efeitos na última frente de escavação)
    54  l2 		= 100 		! [Lp] comprimento do trecho escavado  
    55  d3 		= 20 		! [Re] altura do domínio (profundidade do eixo do túnel longitudinal) 
    56  d4 		= 20 		! [Re] distância das bordas laterais do domínio até o eixo do tunel longitudinal 
    57  d1 		= 10		! [Re] distância entre eixos dos túneis longitudinais (d1 = 16*Re ou d1 = 4*Re)
    58  !   
    59  ! distância adjacente a galeria com malha livre [Lp]   
    60  !   
    61  ! Lp1 deve ter uma medida que se tenha n passos inteiros para se escavar,   
    62  ! portanto: Lp1 = K*Re1 em que K = (d1/2-Re)/(n*Re1).   
    63  ! o valor de d5 é ajustado de modo a ter uma discretização na região da galeria 
    64  !   
    65  !   
    66  *IF,d1,EQ,3,THEN
    67  	d5		= 2
    68  	Lp1		= 0.25*re1
    69  *ELSEIF,d1,EQ,4,THEN
    70  	d5		= 2
    71  	Lp1		= 0.3*re1 
    72  *ELSEIF,d1,EQ,5,THEN
    73  	d5		= 2
    74  	Lp1		= 0.375*re1   
    75  *ELSEIF,d1,EQ,6,THEN
    76  	d5		= 3
    77  	Lp1		= 0.5*re1 
    78  *ELSEIF,d1,EQ,8,THEN
    79  	d5		= 4
    80  	Lp1		= 0.3214*re1	 
    81  *ELSEIF,d1,EQ,10,THEN   
    82  	d5		= 4
    83  	Lp1		= 0.5*re1 
    84  *ELSEIF,d1,EQ,16,THEN   
    85  	d5		= 6			 
    86  	Lp1		= 0.3387*re1  
    87  *ENDIF  
    88  !   
    89  !   
    90  !************************************************************!  
    91  !****_  	2.2 Parâmetros constitutivos do maciço 	_****!   
    92  !************************************************************! 		   
    93  ! Tipo de material do maciço (matmacico)   
    94  !   
    95  ! 	1  - elastico do ANSYS   
    96  ! 	2  - elastoplastico VM do ANSYS (BISO)   
    97  ! 	22 - elastoplastico VM do ANSYS (MISO)   
    98  !	23 - viscoplastico Perzyna VM do ANSYS
    99  !	4  - usermat3D_VM do ANSYS (BISO) 
   100  !	5  - usermat3D_elastico   
   101  !	6  - usermat3D_EP 
   102  !	7  - usermat3D_VP 
   103  !	8  - usermat3D_EPVP	  
   104  !   
   105  matmacico	= 1   
   106  !   
   107  ! Parâmetros de todos os modelos   
   108  E1 		= 500		 ! [MPa] modulo elasticidade (1,2,22,23,4,5,6,7,8)  
   109  nu1 		= 0.23		 ! [adm] coeficiente de poisson (1,2,22,23,4,5,6,7,8) 
   110  !   
   111  ! Parametros para o modelo 2, 22, 6 e 8 
   112  superficief	= 2		 ! função de escoamento: 1-DPI, 2-DPII, 3-DPIII (6,8)
   113  superficieg 	= 2		 ! função potencial: 1-DPI, 2-DPII, 3-DPIII (6,8)   
   114  fi	    	= 0		 ! [graus] angulo de atrito (0 - VM ou TR) (6,8)   
   115  psi	    	= fi		 ! [graus] angulo de dilatância (6,8)   
   116  c1	    	= 4*SQRT(3)/2 ! [MPa] coesão inicial (2,22,23,4,6,8)   
   117  c2	    	= 4*SQRT(3)/2 ! [MPa] coesão de pico (2,22,23,4,6,8)   
   118  c3	    	= 4*SQRT(3)/2 ! [MPa] coesão residual (22,6,8) 
   119  eps1	    	= 0.010		 ! [adm] deformação equiv. limite da zona 1 (22,6,8)   
   120  eps2	    	= 0.010		 ! [adm] deformação equiv. limite da zona 2 (22,6,8)   
   121  eps3	    	= 0.010		 ! [adm] deformação equiv. limite da zona 3 (22,6,8)   
   122  Dalg		= 1		 ! 0 - módulo elastico, 1 - módulo algoritmíco (6,8)  
   123  !   
   124  ! Parametros para o modelo 23, 7 e 8
   125  superficiefvp 	= 2		 ! função de escoamento: 1-DPI, 2-DPII, 3-DPIII (7,8) 
   126  superficiegvp 	= 2		 ! função potencial: 1-DPI, 2-DPII, 3-DPIII (7,8) 
   127  fivp          	= 0		 ! [graus] angulo de atrito (0 - VM ou TR)(7,8) 
   128  psivp         	= fivp		 ! [graus] angulo de dilatância (7,8)   
   129  cvp 	      	= 2*SQRT(3)/2	 ! [MPa] coesão viscoplastica (23,7,8)   
   130  n1	      	= 1		 ! [adm] expoente do modelo de Perzyna (23,7,8)  
   131  eta           	= 4E4 ! [dia] constante de viscosidade dinâmica (23,7,8)
   132  f0     	      	= 1		 ! [MPa] valor de referência (23,7,8)  
   133  thetavp       	= 1		 ! 0 - totalmente explícito, 1 - semi-implicito (7,8)  
   134  !   
   135  !********************************************************************!  
   136  !****_ 		2.3 Parâmetros constitutivos do revest	_****! 
   137  !********************************************************************!  
   138  ! Tipo de material  
   139  !	0 - Sem revestimento  
   140  !	1 - Ansys_Elástico   
   141  !	2 - Usermat_Viscoelastico_CEB-MC90
   142  !   
   143  matrev 		= 0		! Tipo de material (0-SR,1-E,2-VE)
   144  !   
   145  ! Parâmetros para os modelos 1 e 2 
   146  E2 		= 30000		! [MPa] módulo de elasticidade do revestimento (matrev=1)
   147  nu2 		= 0.3    	! [adm] coeficiente de Poisson do revestimento (matrev=1,2)		   
   148  !   
   149  ! Parâmetros para o modelo 2   
   150  fck 		= 20		! [MPa] resistência característica do concreto (2)
   151  s 		= 0.2		! [adm] coef. que depende do tipo de concreto (2)
   152  ti 		= 0		! [dias] início do concreto (2)  
   153  rh 		= 70		! [%] umidade relativa do ambiente (2)   
   154  hf 		= (Re**2-(Re-esp)**2)/(Re-esp) ! [m] espessura fictítica (QUEVEDO, 2017, p. 84) (2)   
   155  hf1		= (Re1**2-(Re1-esp1)**2)/(Re1-esp1)  ! [m] espessura fictítica da galeria (QUEVEDO, 2017, p. 84) (2)  
   156  ts 		= 7		! [dias] idade do concreto no início da secagem (2)  
   157  t0		= 1		! [dias] idade do concreto no início do carregamento (2)  
   158  tinf		= 3000		! [dias] tempo final da análise (2)  
   159  betasc 		= 8d0		! [adm] coeficiente que depende do tipo de cimento (2)  
   160  temperatura 	= 20		! [oC] temperatura (2)   
   161  alpha 		= 1		! [adm] efeito do tipo de cimento durante a cura (2)   
   162  ndec  		= 10		! [década] No. de pontos por decada na discretização (2)   
   163  ligafluencia 	= 1		! [un] 1 - liga fluência, 0 - desliga fluência (2) 
   164  ligaretracao 	= 1		! [un] 1 - liga retração, 0 - desliga retração (2)   
   165  ktime		= 10		! [dias] tempo da análise para saída de dados
   166  kelemid		= 2060		! [un] identificação do elemento para saída 
   167  kkDomIntPt	= 1		! [un] identificação do ponto de integração para saída 
   168  !   
   169  ! Calculo do módulo
   170  fcm 		= fck + 8 
   171  E2 		= 21500*(fcm/10)**(1/3)		    					 
   172  !************************************************************!  
   173  !****_ 		2.4 Condições de Contorno	  	_****!  
   174  !************************************************************!  
   175  prx 		= 2.2 		! [MPa] tensões iniciais na direção x  
   176  pry		= 2.2		! [MPa] tensões iniciais na direção y
   177  prz		= 2.2		! nu1*(prx+pry)	! [MPa] tensões iniciais na direção z
   178  !   
   179  !************************************************************!  
   180  !****_ 		2.5 Discretização do tempo nos passos	_****! 
   181  !************************************************************!  
   182  !   
   183  ! Discretização do tempo durante os passos de escavação tunel longitudinal  
   184  tp 		= Lp/(Vp) 	! [dias] tempo para fazer um passo de escavação nos tuneis longitudinais  
   185  dtp 		= 0.5*tp	! [dias] incremento de tempo inicial dentro de cada passo
   186  dtpmax 		= dtp 		! [dias] incremento máximo de tempo dentro de cada passo  
   187  !   
   188  ! Discretização do tempo durante os passos de escavação da galeria  
   189  tp1 		= Lp1/(Vp1) 	! [dias] tempo para fazer um passo de escavação na galeria transversal 
   190  dtp1		= 0.5*tp1	! [dias] incremento de tempo inicial dentro de cada passo   
   191  dtpmax1		= dtp1		! [dias] incremento máximo de tempo dentro de cada passo  
   192  !   
   193  ! Discretização do tempo nos passos após a escavação   
   194  tp2 		= 100 		! [dias] tempo de cada passo de solução após a escavação do túnel   
   195  np2max 		= 30 		! [un] número máximo de passos de solução após a escavação do túnel 
   196  dtp2		= 0.5*tp2	! [dias] incremento de tempo de cada passo  
   197  !   
   198  tp2autots	= 1		! Especifica quando usar incremento de tempo automático 
   199  !				!      -1 - O programa escolhe 
   200  !				! 	0 - não usa incremento de tempo automático (usa apenas dtp2)  
   201  !				!	1 - usa incremento de tempo automático (usa o dpt2min e dpt2max)
   202  tp2carry	= 1		! Incremento de tempo entre passos
   203  !				!	0 - usa o dtp2 como o incremento de tempo em cada passo  
   204  !				!	1 - usa o incremento de tempo do passo anterior em cada passo (se dtp2autots = 1)
   205  dtp2min		= tp2/2		! [dias] incremento mínimo de tempo de cada passo
   206  dtp2max		= tp2		! [dias] incremento máximo de tempo de cada passo				! 
   207  !   
   208  deltaumin	= 1E-8		! [adm] critério de convergência no tempo   
   209  !   
   210  !************************************************************!  
   211  !****_ 		2.6 Discretização da malha              _****!   
   212  !************************************************************!  
   213  tipoelem 	= 1 		! elementos fora da região da galeria: 1 - SOLID185, 2 - SOLID186  
   214  formaint	= 0		! integração 0 - completa, 1 - reduzida 
   215  tipoelem1 	= 2 		! elementos na região da galeria: 1 - SOLID185, 2 - SOLID186  
   216  formaint1	= 0		! integração 0 - completa, 1 - reduzida
   217  !   
   218  nLp		= 1		! [un] numero de elementos no passo escavado do túnel longitudinal   
   219  nLp1		= 2 		! [un] numero de elementos no passo escavado da galeria 
   220  nL1 		= 15 		! [un] numero de elementos ao longo do eixo do tunel longitudinal no trecho não escavado  
   221  mL1 		= 1/5 		! [adm] taxa de crescimento   
   222  nesp 		= 2 		! [un] numero de elementos na espessura do revestimento do tunel longitudinal  
   223  nCRe 		= 16 		! [un] numero de elementos na interface entre maciço e o revestimento do tunel longitudinal (deve ser par)   
   224  nRi 		= nCRe/2 	! [un] numero de elementos na horizontal e vertical do maciço escavado no tunel longitudinal   
   225  mRi 		= 0 		! [adm] taxa de crecimento  
   226  nd3 		= nCRe/2 	! [un] numero de elementos na horizontal e vertical oposta ao tunel longitudinal
   227  m4ga		= Lp1/1.5 	! [m] tamanho dos elementos na galeria 
   228  !   
   229  *IF,d1,EQ,3,THEN
   230  	nd1 		= 5		! [un] numero de elementos na horizontal e vertical contigua ao tunel longitudinal  
   231  	md1 		= 5 		! [adm] taxa de crescimento		  
   232  	nd4 		= 15 		! [un] numero de elementos na horizontal e vertical contigua a região próxima do tunel longitudinal 
   233  	md4 		= 8 		! [adm] taxa de crescimento
   234  	nd6		= nd1*2		! [un] número de elementos na vertical contígua a galeria transversal  
   235  	md6		= md1		! [adm] taxa de crescimento
   236  	nd5		= 6		! [un] numero de elementos no trecho adjacente a galeria transversal 
   237  	md5		= 4		! [adm] taxa de crescimento  
   238  *ELSEIF,d1,EQ,4,THEN
   239  	nd1 		= 7		! [un] numero de elementos na horizontal e vertical contigua ao tunel longitudinal  
   240  	md1 		= 5 		! [adm] taxa de crescimento		  
   241  	nd4 		= 12 		! [un] numero de elementos na horizontal e vertical contigua a região próxima do tunel longitudinal 
   242  	md4 		= 6 		! [adm] taxa de crescimento
   243  	nd6		= nd1*2		! [un] número de elementos na vertical contígua a galeria transversal  
   244  	md6		= md1		! [adm] taxa de crescimento
   245  	nd5		= 6		! [un] numero de elementos no trecho adjacente a galeria transversal 
   246  	md5		= 4		! [adm] taxa de crescimento  
   247  *ELSEIF,d1,EQ,5,THEN
   248  	nd1 		= 9		! [un] numero de elementos na horizontal e vertical contigua ao tunel longitudinal  
   249  	md1 		= 7 		! [adm] taxa de crescimento		  
   250  	nd4 		= 12 		! [un] numero de elementos na horizontal e vertical contigua a região próxima do tunel longitudinal 
   251  	md4 		= 6 		! [adm] taxa de crescimento
   252  	nd6		= nd1*2		! [un] número de elementos na vertical contígua a galeria transversal  
   253  	md6		= md1		! [adm] taxa de crescimento
   254  	nd5		= 6		! [un] numero de elementos no trecho adjacente a galeria transversal 
   255  	md5		= 4		! [adm] taxa de crescimento  
   256  *ELSEIF,d1,EQ,6,THEN
   257  	nd1 		= 9		! [un] numero de elementos na horizontal e vertical contigua ao tunel longitudinal  
   258  	md1 		= 7 		! [adm] taxa de crescimento		  
   259  	nd4 		= 12 		! [un] numero de elementos na horizontal e vertical contigua a região próxima do tunel longitudinal 
   260  	md4 		= 6 		! [adm] taxa de crescimento
   261  	nd6		= nd1*2		! [un] número de elementos na vertical contígua a galeria transversal  
   262  	md6		= md1		! [adm] taxa de crescimento
   263  	nd5		= 6		! [un] numero de elementos no trecho adjacente a galeria transversal 
   264  	md5		= 4		! [adm] taxa de crescimento  
   265  *ELSEIF,d1,EQ,8,THEN
   266  	nd1 		= 14		! [un] numero de elementos na horizontal e vertical contigua ao tunel longitudinal 
   267  	md1 		= 10 		! [adm] taxa de crescimento		 
   268  	nd4 		= 12 		! [un] numero de elementos na horizontal e vertical contigua a região próxima do tunel longitudinal 
   269  	md4 		= 6 		! [adm] taxa de crescimento
   270  	nd6		= nd1*2		! [un] número de elementos na vertical contígua a galeria transversal  
   271  	md6		= md1		! [adm] taxa de crescimento
   272  	nd5		= 8		! [un] numero de elementos no trecho adjacente a galeria transversal 
   273  	md5		= 6		! [adm] taxa de crescimento  
   274  *ELSEIF,d1,EQ,10,THEN   
   275  	nd1 		= 14		! [un] numero de elementos na horizontal e vertical contigua ao tunel longitudinal 
   276  	md1 		= 10 		! [adm] taxa de crescimento		 
   277  	nd4 		= 12 		! [un] numero de elementos na horizontal e vertical contigua a região próxima do tunel longitudinal 
   278  	md4 		= 6 		! [adm] taxa de crescimento
   279  	nd6		= nd1*2		! [un] número de elementos na vertical contígua a galeria transversal  
   280  	md6		= md1		! [adm] taxa de crescimento
   281  	nd5		= 8		! [un] numero de elementos no trecho adjacente a galeria transversal 
   282  	md5		= 6		! [adm] taxa de crescimento	 
   283  *ELSEIF,d1,EQ,16,THEN   
   284  	nd1 		= 18		! 16 [un] numero de elementos na horizontal e vertical contigua ao tunel longitudinal (exemplo: 6, 8, 12)  
   285  	md1 		= 20 		! 16 [adm] taxa de crescimento (exmeplo: 5, 8, 10)		  
   286  	nd4 		= 5 		! [un] numero de elementos na horizontal e vertical contigua a região próxima do tunel longitudinal  
   287  	md4 		= 1.5 		! [adm] taxa de crescimento  
   288  	nd6		= nd1*2		! [un] número de elementos na vertical contígua a galeria transversal  
   289  	md6		= md1		! [adm] taxa de crescimento
   290  	nd5		= 12		! 8 [un] numero de elementos no trecho adjacente a galeria transversal (exemplo: 6, 8)  
   291  	md5		= 4		! 3 [adm] taxa de crescimento (exemplo: 2, 6)
   292  *ENDIF	 
   293  !   
   294  !************************************************************!  
   295  !****_ 		2.7 Configuração da saida de dados    	_****!
   296  !************************************************************!  
   297  teta		= 90		! angulo da posição do perfil de convergências no túnel longitudinal
   298  direcao 	= 'Y'		! componente dos deslocamentos para o perfil de convergências										    						  
   299  iso		= 0 		! 0 - contorno padrão, 1 - isolinhas (apenas 0 se isosup=1) 
   300  flag1 		= 1 		! 1 - saida jpg do gráfico de convergência em arquivo   
   301  flag2 		= 1 		! 1 - saida txt de resultados do gráfico de convergênci 
   302  flag3 		= 1 		! 1 - saida do gráfico de convergência na tela do Ansys 
   303  !   
   304  ! Obs: os arquivos de imagem jpg saem com o nome jobname###.jpg 
   305  ! onde ### é um inteiro que vai incrementando a partir da última  
   306  ! numeração do último arquivo plotado.   
   307  ! Os campos de resultados serão referentes ao final da análise.   
   308  !   
   309  !***********************************************************!   
   310  !****_ 		2.8 Configurações da solução	     	_****!  
   311  !***********************************************************!   
   312  !   
   313  nr	= 2	! Tipo de Newton-Raphson 
   314  !		! 1 - INIT rigidez não é atualizada
   315  !		! 2 - FULL rigidez atualizada a cada iteração  
   316  !		! 3 - UNSYM assimétrica atualizada a cada iteração
   317  !   
   318  ! Tolerâncias durante os passos de escavação do túnel longitudinal  
   319  tolf	= 1e-6	! tolerância para o resíduo (padrão 0.005)   
   320  tolu	= 1e-4	! tolerância para o incremento de deslocamento (padrão 0.05)  
   321  !   
   322  ! Tolerâncias durante os passos de escavação da galeria transversal  
   323  tolf1	= 1e-6	! tolerância para o resíduo  
   324  tolu1	= 1e-4	! tolerância para o incremento de deslocamento
   325  !   
   326  ! Tolerâncias durante os passos após a construção do túnel 
   327  tolf2	= 1e-6	! tolerância para o resíduo  
   328  tolu2	= 1e-4	! tolerância para o incremento de deslocamento
   329  !   
   330  ! Tolerância para o incremento de deformação plástica equivalente   
   331  plslimit = 0.99 
   332  !   
   333  psc	= 1	! 1 - Ativa, 0 - desativa a opção de paralelização SMP  
   334  nlg	= 0	! 1 - Ativa, 0 - desativa a não lineariedade geométrica   
   335  soleq	= 0	! 1 - calcula o equilibrio do maciço antes de iniciar
   336  !   
   337  !   
   338  !************************************************************!  
   339  !****_ 		2.9 Titulo e nome dos arquivos  	_****!
   340  !************************************************************!  
   341  ! defini titulo na tela do Ansys
   342  /TITLE, Re=%Re% matmacico=%matmacico% E1=%E1% pr=%pr% matrev=%matrev% E2=%E2% vp=%vp%   
   343  !   
   344  ! define nome file.* para os arquivos da analise
   345  /FILNAME,file,0 
   346  !   
   347  !   
   348  !   
   349  !   
   350  !------------------FIM ENTRADA DE DADOS---------------------!   
   351  !   
   352  !   
   353  !   
   354  !   
   355  !************************************************************!  
   356  !****_ 3. PRÉ-PROCESSAMENTO 				_****! 
   357  !************************************************************!  
   358  /PREP7 ! inicia módulo de pré-processamento   
   359  !   
   360  !************************************************************!  
   361  !****_ 		3.1 Calculos iniciais			_****! 
   362  !************************************************************!  
   363  ri 		= re-esp		! [m] raio da face interna do revestimento dos tuneis longitudinais  
   364  l1		= l1*Re    		! [m] comprimento do trecho não escavado  
   365  l2		= l2*Lp			! [m] comprimento do trecho escavado  
   366  lt 		= l1+l2 		! [m] comprimento total do modelo ao longo do eixo longitudinal  
   367  d1 		= d1*Re			! [m] distância entre eixos dos túneis longitudinais (d1 = 16*Re ou d1 = 4*Re) 
   368  d4 		= d4*re 		! [m] distância das bordas laterais do domínio até o eixo do tunel longitudinal   
   369  l3 		= (d1/2+d4)*2 		! [m] dimensão transversal do modelo  
   370  d3		= d3*Re			! [m] altura do domínio (profundidade do eixo do túnel longitudinal)
   371  d5		= d5*Lp			! [m] distância adjacente a galeria com malha livre (exemplo: 1, 2, 4, 6)
   372  np	 	= l2/Lp 		! [un] numero total passos escavados nos tuneis longitudinais
   373  nesc 		= np-npi+1 		! [un] total de escavações ao longo do eixo do tunel longitudinal 
   374  d0		= nd0*lp		! [m] dimensão não suportada (multiplo do passo)
   375  !   
   376  ri1 		= re1-esp1 		! [m] raio da face interna do revestimento das galerias transversais 
   377  d2 		= l2/2 			! [m] posição da galeria ao longo do eixo longitudinal 
   378  d01		= nd01*Lp1		! [m] [m] dimensão não suportada da galeria (multiplo do passo)  
   379  np1 		= (d1/2-re)/Lp1 	! [un] total de passos escavados nas galerias transversais   
   380  nesc1 		= NINT(np1-npi1+1) 		! [un] total de escavações ao longo do eixo das galerias transversais
   381  !pig1 		= pig1+l2/(2*Lp)	! [un] numero de passos de escavação no túnel longitudinal no qual iniciará a escavação da galeria 1 
   382  !   
   383  nescinig		= np/2-npi+1+re1/Lp+pig1	! [un] numero da escavação em que se inicia a galeria  
   384  !   
   385  m1		= Lp/nLp 		! [m] tamanho do elemento ao longo do eixo do tunel longitudinal no trecho escavado  
   386  m9 		= m1 			! [m] tamanho dos elementos na região do tunel oposta a galeria   
   387  !   
   388  vpi = 3.14159265358979323846
   389  !   
   390  ! caso não haja escavação na galeria 
   391  *IF,escavagaleria,EQ,0,THEN 
   392  	nesc1 = 0  
   393  *ENDIF  
   394  !   
   395  ! verificando se haverá análise após a construção do túnel
   396  analise2 = 0
   397  *IF,matmacico,GT,6,OR,matrev,GT,1,THEN  
   398  	analise2 = 1   
   399  *ENDIF  
   400  *IF,matmacico,EQ,23,THEN
   401  	analise2 = 1   
   402  *ENDIF  
   403  !   
   404  !************************************************************!  
   405  !****_ 		3.2 Elementos finitos 			_****!
   406  !************************************************************!  
   407  *IF,tipoelem,EQ,1,THEN  
   408  	ET,1,SOLID185  
   409  	KEYOPT,1,2,formaint
   410  	KEYOPT,1,3,0   
   411  	KEYOPT,1,6,0   
   412  	KEYOPT,1,8,0   
   413  *ELSEIF,tipoelem,EQ,2,THEN  
   414  	ET,1,SOLID186  
   415  	KEYOPT,1,2,formaint
   416  	KEYOPT,1,3,0   
   417  	KEYOPT,1,6,0   
   418  	KEYOPT,1,8,0   
   419  *ENDIF  
   420  !   
   421  *IF,tipoelem1,EQ,1,THEN 
   422  	ET,2,SOLID185  
   423  	KEYOPT,2,2,formaint1   
   424  	KEYOPT,2,3,0   
   425  	KEYOPT,2,6,0   
   426  	KEYOPT,2,8,0   
   427  *ELSEIF,tipoelem1,EQ,2,THEN 
   428  	ET,2,SOLID186  
   429  	KEYOPT,2,2,formaint1   
   430  	KEYOPT,2,3,0   
   431  	KEYOPT,2,6,0   
   432  	KEYOPT,2,8,0   
   433  *ENDIF  
   434  !   
   435  !************************************************************!  
   436  !****_ 		3.3 Material do maciço 			_****!  
   437  !************************************************************!  
   438  *IF,matmacico,eq,1,then 
   439  	! Definindo o material elastico do Ansys   
   440  	MPTEMP,1,0  		 
   441  	MPDATA,EX,1,,E1	   
   442  	MPDATA,PRXY,1,,nu1 	   
   443  *ELSEIF,matmacico,eq,2,then 
   444  	! Definindo o material elastoplástico VM do Ansys bilienar
   445  	yield	    	= 2*c1			! [MPa]	tensão de escoamento  
   446  	Ep 		= 2*(c2-c1)/(eps1)	! [MPa] módulo plástico tangente 
   447  	youngt      	= Ep*E1/(E1+Ep)		! [MPa] módulo de elastoplástico tangente  
   448  	!  
   449  	MPTEMP,1,0  		 
   450  	MPDATA,EX,1,,E1	   
   451  	MPDATA,PRXY,1,,nu1 	   
   452  	TB,BISO,1,1,2, 
   453  	TBTEMP,0   
   454  	TBDATA,,yield,youngt,,,,   
   455  *ELSEIF,matmacico,eq,22,then
   456  	! Definindo o material elastoplástico VM do Ansys multilinear 
   457  	yield	    	= 2*c1			! [MPa]	tensão de escoamento  
   458  	Ep 		= 2*(c2-c1)/(eps1)	! [MPa] módulo plástico tangente 
   459  	youngt      	= Ep*E1/(E1+Ep)		! [MPa] módulo de elastoplástico tangente  
   460  	epst0		= 2*c1/E1		! [adm] deformação total no escoamento 
   461  	epst1		= 2*c2/E1 + eps1 	! [adm] deformação total na zona 1  
   462  	epst2		= 2*c2/E1 + eps2	! [adm] deformação total na zona 2	  
   463  	epst3		= 2*c3/E1 + eps3	! [adm] deformação total na zona 3   
   464  	!  
   465  	MPTEMP,1,0  		 
   466  	MPDATA,EX,1,,E1	   
   467  	MPDATA,PRXY,1,,nu1 	   
   468  	TB,MISO,1,1,5,0
   469  	TBTEMP,0   
   470  	TBPT,,epst0,2*c1   
   471  	TBPT,,epst1,2*c2   
   472  	TBPT,,epst2,2*c2   
   473  	TBPT,,epst3,2*c3   
   474  	TBPT,,0.1,2*c3 
   475  *ELSEIF,matmacico,eq,23,then
   476  	! Definindo o material viscoplastico perzyna VM do Ansys   
   477  	yieldvp	    	= 2*cvp				! [MPa]	tensão de escoamento  
   478  	youngtvp      	= 0				! [MPa] módulo de elastoplástico tangente  
   479  	gamma	      	= ((yieldvp/f0)**n1)/eta 	! [dias^-1] coeficiente Gamma do modelo de Perzyna Ansys
   480  	m  	      	= 1/n1				! [adm] coeficiente m do modelo de Perzyna do ANSYS   
   481  	!  
   482  	MPTEMP,1,0  		 
   483  	MPDATA,EX,1,,E1	   
   484  	MPDATA,PRXY,1,,nu1	
   485  	TB,BISO,1,1,2, 
   486  	TBTEMP,0   
   487  	TBDATA,,yieldvp,youngtvp,,,,   
   488  	TB,RATE,1,1,2,1
   489  	TBTEMP,0   
   490  	TBDATA,,m,gamma,,,,	   
   491  *ELSEIF,matmacico,eq,4,then 
   492  	! Definindo material usermat3D VM do Ansys 
   493  	yield	    	= 2*c1			! [MPa]	tensão de escoamento  
   494  	Ep 		= 2*(c2-c1)/(eps1)	! [MPa] módulo plástico tangente 
   495  	youngt      	= Ep*E1/(E1+Ep)		! [MPa] módulo de elastoplástico tangente  
   496  	!  
   497  	TB,USER,1,2,5  
   498  	TBTEMP,1.0 		  
   499  	TBDATA,1,matmacico,E1,nu1,yield,youngt ! modelo, E, posn, sigy, H  
   500  	TB,STATE,1,,8  
   501  *ELSEIF,matmacico,eq,5,then 
   502  	! Definindo material usermat3D_elastico
   503  	TB,USER,1,2,3  
   504  	TBTEMP,1.0 		  
   505  	TBDATA,1,matmacico,E1,nu1  
   506  	TB,STATE,1,,8	 
   507  *ELSEIF,matmacico,eq,6,then 
   508  	! Definindo material usermat3D_EP  
   509  	TB,USER,1,2,14 
   510  	TBTEMP,1.0 		  
   511  	TBDATA,1,matmacico,E1,nu1  
   512  	TBDATA,4,superficief,superficieg   
   513  	TBDATA,6,fi,psi,   
   514  	TBDATA,8,c1,c2,c3,eps1,eps2,eps3   
   515  	TBDATA,14,Dalg 
   516  	TB,STATE,1,,20	
   517  *ELSEIF,matmacico,eq,7,then 
   518  	! Definindo material usermat3D_VP  
   519  	TB,USER,1,2,13 
   520  	TBTEMP,1.0 		  
   521  	TBDATA,1,matmacico,E1,nu1  
   522  	TBDATA,4,superficiefvp,superficiegvp   
   523  	TBDATA,6,fivp,psivp,   
   524  	TBDATA,8,cvp,n1,eta,f0,thetavp	
   525  	TB,STATE,1,,20		   
   526  *ELSEIF,matmacico,eq,8,then 
   527  	! Definindo material usermat3D_EPVP
   528  	TB,USER,1,2,23 
   529  	TBTEMP,1.0 		  
   530  	TBDATA,1,matmacico,E1,nu1  
   531  	TBDATA,4,superficief,superficieg   
   532  	TBDATA,6,fi,psi,   
   533  	TBDATA,8,c1,c2,c3,eps1,eps2,eps3   
   534  	TBDATA,14,Dalg 
   535  	TBDATA,15,superficiefvp,superficiegvp  
   536  	TBDATA,17,fivp,psivp   
   537  	TBDATA,19,cvp  
   538  	TBDATA,20,n1,eta,f0
   539  	TBDATA,23,thetavp	 
   540  	TB,STATE,1,,20 
   541  *ENDIF  
   542  !   
   543  !************************************************************!  
   544  !****_ 		3.4 Material do revestimento		_****!   
   545  !************************************************************!  
   546  *IF,matrev,EQ,1,THEN
   547  	*DO,i,2,nesc+nesc1,1   
   548  		MPTEMP,1,0  				  
   549  		MPDATA,EX,i,,E2				   
   550  		MPDATA,PRXY,i,,nu2
   551  	*ENDDO 			 
   552  *ELSEIF,matrev,EQ,2,THEN
   553  	*DO,i,2,nesc+nesc1,1   
   554  		TB,USER,i,1,18
   555  		TBTEMP,1.0
   556  		TBDATA,1,9
   557  		TBDATA,2,ligafluencia,ligaretracao
   558  		! 
   559  		*IF,escavagaleria,EQ,1,THEN   
   560  			*IF,i,LT,nesc+nesc1,THEN 
   561  				TBDATA,4,npi*tp+tp*(i-2)
   562  				TBDATA,10,s,rh,hf,betasc,alpha  
   563  			*ELSE
   564  				TBDATA,4,tp*nesc + tp1*np1 + tp1*(i-2)  
   565  				TBDATA,10,s,rh,hf1,betasc,alpha 
   566  			*ENDIF   
   567  		*ELSE 
   568  			TBDATA,4,npi*tp+tp*(i-2) 
   569  			TBDATA,10,s,rh,hf,betasc,alpha   
   570  		*ENDIF
   571  		! 
   572  		TBDATA,5,ts,t0,tinf   
   573  		TBDATA,8,fck,nu2  
   574  		TBDATA,15,ndec
   575  		TBDATA,16,ktime,kelemid,kkDomIntPt
   576  		TB,STATE,i,,500   
   577  	*ENDDO	
   578  *ENDIF  
   579  !   
   580  !************************************************************!  
   581  !****_ 		3.5 Modelando o sólido			_****!   
   582  !************************************************************!  
   583  !   
   584  ! Definindo a vista 
   585  /VIEW,1,1,1,1   
   586  /ANG,1  
   587  !   
   588  ! criando bloco e casca cilindrica do trecho não escavado  
   589  BLC4,-d4,0,l3/2,d3,l1   
   590  CYL4,0,0,ri,0,re,180,l1 
   591  !   
   592  ! criando bloco e casca cilindrica do trecho que será escavado 
   593  WPOFFS,0,0,l1   
   594  BLC4,-d4,0,l3/2,d3,l2   
   595  CYL4,0,0,ri,0,re,180,l2 
   596  !   
   597  ! excluindo volumes em comum
   598  VPTN,ALL
   599  !   
   600  ! tolerancia para operações booleanas 
   601  BTOL,1E-4   
   602  !   
   603  ! dividindo os volumes no plano vertical do eixo do tunel principal 
   604  WPOFFS,0,0,0
   605  WPRO,,,90.000000
   606  VSBW,ALL
   607  !   
   608  ! dividindo o volume entre tuneis na altura 
   609  VSEL,ALL
   610  VSEL,S,LOC,X,0,d1/2 
   611  WPOFFS,0,d1/2,0 
   612  WPRO,,90,   
   613  VSBW,ALL
   614  !   
   615  ! criando o mesmo volume no lado oposto do plano vertical do eixo do tunel  
   616  VSEL,ALL
   617  VSEL,S,LOC,X,0,d1/2 
   618  VSEL,R,LOC,Y,0,d1/2 
   619  CSYS,1  
   620  VSEL,U,LOC,X,0,re   
   621  CSYS,0  
   622  VSYMM,X,ALL, , ,0,1,0   
   623  !   
   624  ! criando primeiro tunel transversal
   625  WPAVE,0,0,0 
   626  WPCSYS,-1,0 
   627  WPOFFS,0,0,lt-d2/2		
   628  WPRO,,,90   
   629  CYL4,0,0,ri1,0,re1,180,d1/2 
   630  !   
   631  ! criando plano de corte da galeria transversal 
   632  CSYS,1  
   633  VSEL,ALL
   634  VSEL,S,LOC,Z,l1,lt  
   635  VSEL,R,LOC,X,ri/2,re
   636  ASEL,S,EXT  
   637  CSYS,1  
   638  ASEL,R,LOC,X,re,re  
   639  ASEL,R,LOC,Z,l1+l2/2,l1+l2/2
   640  CM,A0,AREA  
   641  !   
   642  ! cortando a galeria transversal
   643  CSYS,0  
   644  ALLSEL,ALL  
   645  VSEL,S,LOC,Z,lt-d2/2+re1,lt-d2/2-re1
   646  VSBA,ALL,A0 
   647  !   
   648  ! deletando trecho da galeria transversal dentro do tunel longitudinal  
   649  ALLSEL,ALL  
   650  WPAVE,0,0,0 
   651  WPCSYS,-1,0 
   652  VSEL,S,LOC,Z,lt-d2/2,lt-d2/2
   653  VSEL,R,LOC,X,0,re   
   654  VSEL,R,LOC,Y,0,re1  
   655  VDELE,ALL,,,1   
   656  !   
   657  ! Alterando posição da galeria para a metade de L2
   658  ALLSEL,ALL  
   659  WPAVE,0,0,0 
   660  WPCSYS,-1,0 
   661  VSEL,S,LOC,Z,lt-d2/2,lt-d2/2
   662  VSEL,R,LOC,X,re,d1/2
   663  VSEL,R,LOC,Y,0,re1  
   664  VGEN, ,ALL, , , , ,-d2/2, , ,1  
   665  !   
   666  ! cortando trecho do tunel principal
   667  VSEL,ALL
   668  WPAVE,0,0,0 
   669  WPCSYS,-1,0 
   670  WPOFFS,0,0,(lt-l2/2)+re1+d5		   
   671  VSBW,ALL
   672  WPOFFS,0,0,-2*re1-2*d5  
   673  VSBW,ALL
   674  !   
   675  ! particionando outros volumes  
   676  VSEL,ALL
   677  VPTN,ALL
   678  !   
   679  ! Cortando no meio da galeria   
   680  VSEL,ALL
   681  WPAVE,0,0,0 
   682  WPCSYS,-1,0 
   683  VSEL,S,LOC,Z,lt-l2/2-d5,lt-l2/2+d5  
   684  WPOFFS,0,0,lt-l2/2  
   685  VSBW,ALL
   686  !   
   687  ! Deletando os volumes na metade da galeria 
   688  VSEL,ALL
   689  WPAVE,0,0,0 
   690  WPCSYS,-1,0 
   691  VSEL,S,LOC,Z,l1+l2/2,l1+l2/2-re1-d5 
   692  VSEL,R,LOC,X,-d1/2,d1/2 
   693  VSEL,R,LOC,Y,0,d1/2 
   694  VDELE,ALL,,,1   
   695  !   
   696  ! juntando pontos duplicados
   697  ALLSEL,ALL  
   698  NUMMRG,KP, , , ,LOW 
   699  !   
   700  ! renumerando a geometria   
   701  NUMCMP,KP   
   702  NUMCMP,LINE 
   703  NUMCMP,AREA 
   704  NUMCMP,VOLU 
   705  !   
   706  !************************************************************!  
   707  !****_ 		3.6 Divisões para a malha nas linhas 	_****!  
   708  !************************************************************!  
   709  !   
   710  ! tamanho do elemento ao longo do eixo do tunel longitudinal no trecho escavado (parte a frente da galeria) 
   711  CSYS,0  
   712  LSEL,ALL
   713  LSEL,S,LOC,Z,lt-0.01,lt-l2/2+re1+d5+0.01
   714  LSEL,R,LOC,X,-d4,d1/2   
   715  LSEL,R,LOC,Y,0,d3   
   716  LESIZE,ALL,m1, , , , , , ,1 
   717  !   
   718  ! tamanho do elemento ao longo do eixo do tunel longitudinal no trecho escavado (parte anterior a galeria)  
   719  CSYS,0  
   720  LSEL,ALL
   721  LSEL,S,LOC,Z,lt-l2/2-re1-d5-0.01,lt-l2/2-d2+re1+d5+0.01 
   722  LSEL,R,LOC,X,-d4,d1/2   
   723  LSEL,R,LOC,Y,0,d3   
   724  LESIZE,ALL,m1, , , , , , ,1 
   725  !   
   726  ! interface entre solo e revestimento do tunel longitudinal 
   727  CSYS,1  
   728  LSEL,ALL
   729  LSEL,S,LOC,X,0.01,re
   730  LSEL,R,LOC,Y,1,180-1
   731  LSEL,R,LOC,Z,0,lt   
   732  LSEL,U,LOC,Y,89,91  
   733  LSEL,U,LOC,Z,lt-l2/2+re1-0.01,lt-l2/2-re1+0.01  
   734  LESIZE,ALL, , ,nCRe, , , , ,1   
   735  !   
   736  CSYS,1  
   737  LSEL,ALL
   738  LSEL,S,LOC,X,0.01,re
   739  LSEL,R,LOC,Y,1,180-1
   740  LSEL,R,LOC,Z,lt-l2/2,lt-l2/2
   741  LSEL,U,LOC,Y,89,91  
   742  LSEL,U,LOC,Y,0,90   
   743  LESIZE,ALL, , ,nCRe, , , , ,1   
   744  !   
   745  CSYS,1  
   746  LSEL,ALL
   747  LSEL,S,LOC,X,0.01,ri
   748  LSEL,R,LOC,Y,1,89   
   749  LSEL,R,LOC,Z,lt-l2/2,lt-l2/2
   750  LESIZE,ALL, , ,nCRe, , , , ,1   
   751  !   
   752  ! horizontal e vertical dentro do túnel longitudinal   
   753  CSYS,1  
   754  LSEL,ALL
   755  LSEL,S,LOC,X,0,ri-0.01  
   756  LSEL,R,LOC,Y,0,180  
   757  LSEL,R,LOC,Z,0,lt   
   758  LSEL,U,LOC,Z,lt-0.01,lt-l2/2+re1+0.01+d5
   759  LSEL,U,LOC,Z,lt-l2/2-re1-0.01-d5,l1+0.01
   760  LSEL,U,LOC,Z,l1-0.01,0.01   
   761  LSEL,U,LOC,Z,lt-l2/2+d5+re1-0.01,lt-l2/2+0.01   
   762  LSEL,U,LOC,Z,lt-l2/2-0.01,lt-l2/2-re1-d5+0.01   
   763  LESIZE,ALL, , ,nRi,mRi, , , ,1  
   764  !   
   765  ! horizontal e vertical contigua ao tunel longitudinal  
   766  CSYS,1  
   767  LSEL,ALL
   768  LSEL,S,LOC,X,re+0.01,d1/2-0.01  
   769  LSEL,R,LOC,Y,0,180  
   770  LSEL,R,LOC,Z,0,l1+l2/2-re1-d5   
   771  LESIZE,ALL, , ,nd1,md1, , , ,1  
   772  !   
   773  CSYS,1  
   774  LSEL,ALL
   775  LSEL,S,LOC,X,re+0.01,d1/2-0.01  
   776  LSEL,R,LOC,Y,0,180  
   777  LSEL,R,LOC,Z,l1+l2/2+re1+d5,lt  
   778  LESIZE,ALL, , ,nd1,md1, , , ,1  
   779  !   
   780  CSYS,1  
   781  LSEL,ALL
   782  LSEL,S,LOC,X,re+0.01,d1/2-0.01  
   783  LSEL,R,LOC,Y,90,180 
   784  LSEL,R,LOC,Z,l1+l2/2,l1+l2/2
   785  LESIZE,ALL, , ,nd1,md1, , , ,1  
   786  !   
   787  LSEL,ALL
   788  LSEL,S,LOC,Y,89,91  
   789  LSEL,R,LOC,Z,lt-l2/2,lt-l2/2
   790  LREVERSE,ALL
   791  !   
   792  CSYS,1  
   793  LSEL,ALL
   794  LSEL,S,LOC,X,re+0.01,d1/2-0.01  
   795  LSEL,R,LOC,Y,89,90  
   796  LSEL,R,LOC,Z,l1+l2/2+re1+d5,l1+l2/2-re1-d5  
   797  LREVERSE,ALL
   798  !   
   799  ! Virando algumas linhas
   800  CSYS,1  
   801  LSEL,ALL
   802  LSEL,S,LOC,X,re+0.01,d1/2-0.01  
   803  LSEL,R,LOC,Y,0,0.01 
   804  LSEL,R,LOC,Z,0,l1   
   805  LREVERSE,ALL
   806  !   
   807  LSEL,ALL
   808  LSEL,S,LOC,X,re+1,d1/2-0.01 
   809  LSEL,R,LOC,Y,0,0.01 
   810  LSEL,R,LOC,Z,lt,lt  
   811  LREVERSE,ALL
   812  !   
   813  LSEL,ALL
   814  LSEL,S,LOC,X,re+0.01,d1/2-0.01  
   815  LSEL,R,LOC,Y,179,181
   816  LSEL,R,LOC,Z,0,l1   
   817  LREVERSE,ALL
   818  !   
   819  ! horizontal e vertical contigua a região de refinamento do túnel longitudinal
   820  CSYS,0  
   821  LSEL,ALL
   822  LSEL,S,LOC,X,-d1/2-0.01,-d4+0.01
   823  LSEL,R,LOC,Y,0,0.01 
   824  LSEL,R,LOC,Z,0,lt   
   825  LESIZE,ALL, , ,nd4,md4, , , ,1  
   826  !   
   827  CSYS,0  
   828  LSEL,ALL
   829  LSEL,S,LOC,X,0,d1/2 
   830  LSEL,R,LOC,Y,d1/2+0.01,d3-0.01  
   831  LSEL,R,LOC,Z,0,lt   
   832  LREVERSE,ALL
   833  LESIZE,ALL, , ,nd4,md4, , , ,1  
   834  !   
   835  CSYS,0  
   836  LSEL,ALL
   837  LSEL,S,LOC,X,-d1/2,0
   838  LSEL,R,LOC,Y,d1/2+0.01,d3-0.01  
   839  LSEL,R,LOC,Z,l1+l2/2,l1+l2/2
   840  LREVERSE,ALL
   841  !   
   842  CSYS,0  
   843  LSEL,ALL
   844  LSEL,S,LOC,X,-d1/2-0.01,-d4+0.01
   845  LSEL,R,LOC,Y,0,0.01 
   846  LSEL,R,LOC,Z,0,l1   
   847  LREVERSE,ALL
   848  !   
   849  CSYS,0  
   850  LSEL,ALL
   851  LSEL,S,LOC,X,-d1/2-0.01,-d4+0.01
   852  LSEL,R,LOC,Y,0,0.01 
   853  LSEL,R,LOC,Z,lt,lt-0.01 
   854  LREVERSE,ALL
   855  !   
   856  ! horizontal e vertical oposta ao tunel longitudinal
   857  CSYS,0  
   858  LSEL,ALL
   859  LSEL,S,LOC,X,-d1/2+1,-d1/2-0.01 
   860  LSEL,R,LOC,Y,0.01,d1/2-0.01 
   861  LSEL,R,LOC,Z,0,lt   
   862  LESIZE,ALL, , ,nd3, , , , ,1
   863  !   
   864  CSYS,0  
   865  LSEL,ALL
   866  LSEL,S,LOC,X,d1/2+0.01,d1/2-0.01
   867  LSEL,R,LOC,Y,re,d1/2-0.01   
   868  LSEL,R,LOC,Z,0,lt   
   869  LSEL,U,LOC,Z,lt-l2/2,lt-l2/2
   870  LESIZE,ALL, , ,nd3, , , , ,1
   871  !   
   872  CSYS,0  
   873  LSEL,ALL
   874  LSEL,S,LOC,X,0.01,d1/2-0.01 
   875  LSEL,R,LOC,Y,d1/2-0.01,d3   
   876  LSEL,R,LOC,Z,0,lt   
   877  LESIZE,ALL, , ,nd3, , , , ,1
   878  !   
   879  CSYS,0  
   880  LSEL,ALL
   881  LSEL,S,LOC,X,-0.01,-d1/2+0.01   
   882  LSEL,R,LOC,Y,d1/2-0.01,d1/2+0.01
   883  LSEL,R,LOC,Z,0,lt   
   884  LESIZE,ALL, , ,nd3, , , , ,1
   885  !   
   886  CSYS,0  
   887  LSEL,ALL
   888  LSEL,S,LOC,X,-0.01,-d4+0.01 
   889  LSEL,R,LOC,Y,d3-0.01,d3+0.01
   890  LSEL,R,LOC,Z,0,lt   
   891  LESIZE,ALL, , ,nd3, , , , ,1
   892  !   
   893  CSYS,0  
   894  LSEL,ALL
   895  LSEL,S,LOC,X,-d4-0.01,-d4+0.01  
   896  LSEL,R,LOC,Y,0.01,d3-0.01   
   897  LSEL,R,LOC,Z,0,lt   
   898  LESIZE,ALL, , ,nd3, , , , ,1
   899  !   
   900  ! numero de elementos na espessura do revestimento do tunel longitudinal
   901  CSYS,0  
   902  LSEL,ALL
   903  LSEL,S,LOC,X,ri+0.01,re-0.01
   904  LSEL,R,LOC,Y,0,0.01 
   905  LSEL,R,LOC,Z,0,lt   
   906  LESIZE,ALL, , ,nesp, , , , ,1   
   907  !   
   908  CSYS,0  
   909  LSEL,ALL
   910  LSEL,S,LOC,X,-ri-0.01,-re+0.01  
   911  LSEL,R,LOC,Y,0,0.01 
   912  LSEL,R,LOC,Z,0,lt   
   913  LESIZE,ALL, , ,nesp, , , , ,1   
   914  !   
   915  ! tamanho dos elementos na região do tunel oposta a galeria
   916  CSYS,0  
   917  LSEL,ALL
   918  LSEL,S,LOC,X,-re-0.01,-d4   
   919  LSEL,R,LOC,Y,0,d3   
   920  LSEL,R,LOC,Z,lt-l2/2+(re1+d5)/2,lt-l2/2+(re1+d5)/2  
   921  LESIZE,ALL,m9, , , , , , ,1 
   922  !   
   923  CSYS,0  
   924  LSEL,ALL
   925  LSEL,S,LOC,X,-re-0.01,-d4   
   926  LSEL,R,LOC,Y,0,d3   
   927  LSEL,R,LOC,Z,lt-l2/2-(re1+d5)/2,lt-l2/2-(re1+d5)/2  
   928  LESIZE,ALL,m9, , , , , , ,1 
   929  !   
   930  CSYS,0  
   931  LSEL,ALL
   932  LSEL,S,LOC,X,0,d1/2 
   933  LSEL,R,LOC,Y,d1/2,d3
   934  LSEL,R,LOC,Z,lt-l2/2+(re1+d5)/2,lt-l2/2+(re1+d5)/2  
   935  LESIZE,ALL,m9, , , , , , ,1 
   936  !   
   937  CSYS,0  
   938  LSEL,ALL
   939  LSEL,S,LOC,X,0,d1/2 
   940  LSEL,R,LOC,Y,d1/2,d3
   941  LSEL,R,LOC,Z,lt-l2/2-(re1+d5)/2,lt-l2/2-(re1+d5)/2  
   942  LESIZE,ALL,m9, , , , , , ,1 
   943  !   
   944  ! elementos ao longo do eixo do tunel longitudinal no trecho não escavado  
   945  CSYS,0  
   946  LSEL,ALL
   947  LSEL,S,LOC,Z,0.01,lt-2*d2-0.01  
   948  LSEL,R,LOC,X,-d4+0.01,d1/2  
   949  LSEL,R,LOC,Y,0,d3   
   950  LREVERSE,ALL
   951  LESIZE,ALL, , ,nL1,1/mL1, , , ,1
   952  !   
   953  CSYS,0  
   954  LSEL,ALL
   955  LSEL,S,LOC,Z,0.01,lt-2*d2-0.01  
   956  LSEL,R,LOC,X,-d4,-d4+0.01   
   957  LSEL,R,LOC,Y,0,d3   
   958  LREVERSE,ALL
   959  LESIZE,ALL, , ,nL1,mL1, , , ,1  
   960  !   
   961  ! Adjacente ao a galeria transversal
   962  CSYS,0  
   963  LSEL,ALL
   964  LSEL,S,LOC,Z,lt-l2/2+re1+d5-0.01,lt-l2/2+re1+0.01   
   965  LSEL,R,LOC,X,re-0.01,d1/2   
   966  LSEL,R,LOC,Y,0,0.01 
   967  LESIZE,ALL, , ,nd5,md5, , , ,1  
   968  !   
   969  ! Vertical acima da galeria transversal 
   970  CSYS,0  
   971  LSEL,ALL
   972  LSEL,S,LOC,Z,lt-l2/2,lt-l2/2
   973  LSEL,R,LOC,X,d1/2,d1/2  
   974  LSEL,R,LOC,Y,re1,d1/2   
   975  LESIZE,ALL, , ,nd6,md6, , , ,1  
   976  !   
   977  CSYS,0  
   978  LSEL,ALL
   979  LSEL,S,LOC,Z,lt-l2/2,lt-l2/2
   980  LSEL,R,LOC,X,0,d1/2 
   981  LSEL,R,LOC,Y,re,d1/2-0.01   
   982  LREVERSE,ALL
   983  !   
   984  !   
   985  !************************************************************!  
   986  !****_ 		3.7 Concatenando áreas da malha mapeada _****!
   987  !************************************************************!  
   988  !   
   989  ! primeiro trecho   
   990  ALLSEL,ALL  
   991  VSEL,S,LOC,X,0,d1/2 
   992  VSEL,R,LOC,Y,0,d1/2 
   993  VSEL,R,LOC,Z,lt,lt-l2/2+re1+d5  
   994  CSYS,1  
   995  VSEL,U,LOC,X,0,Re   
   996  CSYS,0  
   997  ASEL,S,EXT  
   998  ASEL,R,LOC,X,d1/2   
   999  CM,A1,AREA  
  1000  ALLSEL,ALL  
  1001  VSEL,S,LOC,X,0,d1/2 
  1002  VSEL,R,LOC,Y,0,d1/2 
  1003  VSEL,R,LOC,Z,lt,lt-l2/2+re1+d5  
  1004  CSYS,1  
  1005  VSEL,U,LOC,X,0,Re   
  1006  CSYS,0  
  1007  ASEL,S,EXT  
  1008  ASEL,R,LOC,Y,d1/2   
  1009  CM,A2,AREA  
  1010  CMSEL,S,A1,AREA 
  1011  CMSEL,A,A2,AREA 
  1012  ACCAT,ALL   
  1013  !   
  1014  ALLSEL,ALL  
  1015  VSEL,S,LOC,X,0,-d1/2
  1016  VSEL,R,LOC,Y,0,d1/2 
  1017  VSEL,R,LOC,Z,lt,lt-l2/2+re1+d5  
  1018  CSYS,1  
  1019  VSEL,U,LOC,X,0,Re   
  1020  CSYS,0  
  1021  ASEL,S,EXT  
  1022  ASEL,R,LOC,X,-d1/2  
  1023  CM,A1,AREA  
  1024  ALLSEL,ALL  
  1025  VSEL,S,LOC,X,0,-d1/2
  1026  VSEL,R,LOC,Y,0,d1/2 
  1027  VSEL,R,LOC,Z,lt,lt-l2/2+re1+d5  
  1028  CSYS,1  
  1029  VSEL,U,LOC,X,0,Re   
  1030  CSYS,0  
  1031  ASEL,S,EXT  
  1032  ASEL,R,LOC,Y,d1/2   
  1033  CM,A2,AREA  
  1034  CMSEL,S,A1,AREA 
  1035  CMSEL,A,A2,AREA 
  1036  ACCAT,ALL   
  1037  !   
  1038  ALLSEL,ALL  
  1039  VSEL,S,LOC,X,-d4,-d1/2  
  1040  VSEL,R,LOC,Y,0,d3/2 
  1041  VSEL,R,LOC,Z,lt,lt-l2/2+re1+d5  
  1042  ASEL,S,EXT  
  1043  ASEL,R,LOC,X,-d4
  1044  CM,A1,AREA  
  1045  ALLSEL,ALL  
  1046  VSEL,S,LOC,X,-d4,-d1/2  
  1047  VSEL,R,LOC,Y,0,d3/2 
  1048  VSEL,R,LOC,Z,lt,lt-l2/2+re1+d5  
  1049  ASEL,S,EXT  
  1050  ASEL,R,LOC,Y,d3 
  1051  CM,A2,AREA  
  1052  CMSEL,S,A1,AREA 
  1053  CMSEL,A,A2,AREA 
  1054  ACCAT,ALL   
  1055  !   
  1056  ! segundo trecho
  1057  ALLSEL,ALL  
  1058  VSEL,S,LOC,X,0,d1/2 
  1059  VSEL,R,LOC,Y,0,d1/2 
  1060  VSEL,R,LOC,Z,lt-l2/2-re1-d5,lt-l2   
  1061  CSYS,1  
  1062  VSEL,U,LOC,X,0,Re   
  1063  CSYS,0  
  1064  ASEL,S,EXT  
  1065  ASEL,R,LOC,X,d1/2   
  1066  CM,A1,AREA  
  1067  ALLSEL,ALL  
  1068  VSEL,S,LOC,X,0,d1/2 
  1069  VSEL,R,LOC,Y,0,d1/2 
  1070  VSEL,R,LOC,Z,lt-l2/2-re1-d5,lt-l2   
  1071  CSYS,1  
  1072  VSEL,U,LOC,X,0,Re   
  1073  CSYS,0  
  1074  ASEL,S,EXT  
  1075  ASEL,R,LOC,Y,d1/2   
  1076  CM,A2,AREA  
  1077  CMSEL,S,A1,AREA 
  1078  CMSEL,A,A2,AREA 
  1079  ACCAT,ALL   
  1080  !   
  1081  ALLSEL,ALL  
  1082  VSEL,S,LOC,X,0,-d1/2
  1083  VSEL,R,LOC,Y,0,d1/2 
  1084  VSEL,R,LOC,Z,lt-l2/2-re1-d5,lt-l2   
  1085  CSYS,1  
  1086  VSEL,U,LOC,X,0,Re   
  1087  CSYS,0  
  1088  ASEL,S,EXT  
  1089  ASEL,R,LOC,X,-d1/2  
  1090  CM,A1,AREA  
  1091  ALLSEL,ALL  
  1092  VSEL,S,LOC,X,0,-d1/2
  1093  VSEL,R,LOC,Y,0,d1/2 
  1094  VSEL,R,LOC,Z,lt-l2/2-re1-d5,lt-l2   
  1095  CSYS,1  
  1096  VSEL,U,LOC,X,0,Re   
  1097  CSYS,0  
  1098  ASEL,S,EXT  
  1099  ASEL,R,LOC,Y,d1/2   
  1100  CM,A2,AREA  
  1101  CMSEL,S,A1,AREA 
  1102  CMSEL,A,A2,AREA 
  1103  ACCAT,ALL   
  1104  !   
  1105  ALLSEL,ALL  
  1106  VSEL,S,LOC,X,-d4,-d1/2  
  1107  VSEL,R,LOC,Y,0,d3/2 
  1108  VSEL,R,LOC,Z,lt-l2/2-re1-d5,lt-l2   
  1109  ASEL,S,EXT  
  1110  ASEL,R,LOC,X,-d4
  1111  CM,A1,AREA  
  1112  ALLSEL,ALL  
  1113  VSEL,S,LOC,X,-d4,-d1/2  
  1114  VSEL,R,LOC,Y,0,d3/2 
  1115  VSEL,R,LOC,Z,lt-l2/2-re1-d5,lt-l2   
  1116  ASEL,S,EXT  
  1117  ASEL,R,LOC,Y,d3 
  1118  CM,A2,AREA  
  1119  CMSEL,S,A1,AREA 
  1120  CMSEL,A,A2,AREA 
  1121  ACCAT,ALL   
  1122  !   
  1123  ! terceiro trecho (trecho não escavado)
  1124  ALLSEL,ALL  
  1125  VSEL,S,LOC,X,0,d1/2 
  1126  VSEL,R,LOC,Y,0,d1/2 
  1127  VSEL,R,LOC,Z,0,l1   
  1128  CSYS,1  
  1129  VSEL,U,LOC,X,0,Re   
  1130  CSYS,0  
  1131  ASEL,S,EXT  
  1132  ASEL,R,LOC,X,d1/2   
  1133  CM,A1,AREA  
  1134  ALLSEL,ALL  
  1135  VSEL,S,LOC,X,0,d1/2 
  1136  VSEL,R,LOC,Y,0,d1/2 
  1137  VSEL,R,LOC,Z,0,l1   
  1138  CSYS,1  
  1139  VSEL,U,LOC,X,0,Re   
  1140  CSYS,0  
  1141  ASEL,S,EXT  
  1142  ASEL,R,LOC,Y,d1/2   
  1143  CM,A2,AREA  
  1144  CMSEL,S,A1,AREA 
  1145  CMSEL,A,A2,AREA 
  1146  ACCAT,ALL   
  1147  !   
  1148  ALLSEL,ALL  
  1149  VSEL,S,LOC,X,0,-d1/2
  1150  VSEL,R,LOC,Y,0,d1/2 
  1151  VSEL,R,LOC,Z,0,l1   
  1152  CSYS,1  
  1153  VSEL,U,LOC,X,0,Re   
  1154  CSYS,0  
  1155  ASEL,S,EXT  
  1156  ASEL,R,LOC,X,-d1/2  
  1157  CM,A1,AREA  
  1158  ALLSEL,ALL  
  1159  VSEL,S,LOC,X,0,-d1/2
  1160  VSEL,R,LOC,Y,0,d1/2 
  1161  VSEL,R,LOC,Z,0,l1   
  1162  CSYS,1  
  1163  VSEL,U,LOC,X,0,Re   
  1164  CSYS,0  
  1165  ASEL,S,EXT  
  1166  ASEL,R,LOC,Y,d1/2   
  1167  CM,A2,AREA  
  1168  CMSEL,S,A1,AREA 
  1169  CMSEL,A,A2,AREA 
  1170  ACCAT,ALL   
  1171  !   
  1172  ALLSEL,ALL  
  1173  VSEL,S,LOC,X,-d4,-d1/2  
  1174  VSEL,R,LOC,Y,0,d3/2 
  1175  VSEL,R,LOC,Z,0,l1   
  1176  ASEL,S,EXT  
  1177  ASEL,R,LOC,X,-d4
  1178  CM,A1,AREA  
  1179  ALLSEL,ALL  
  1180  VSEL,S,LOC,X,-d4,-d1/2  
  1181  VSEL,R,LOC,Y,0,d3/2 
  1182  VSEL,R,LOC,Z,0,l1   
  1183  ASEL,S,EXT  
  1184  ASEL,R,LOC,Y,d3 
  1185  CM,A2,AREA  
  1186  CMSEL,S,A1,AREA 
  1187  CMSEL,A,A2,AREA 
  1188  ACCAT,ALL   
  1189  !   
  1190  ! entre o primeiro e segundo trecho 
  1191  ALLSEL,ALL  
  1192  VSEL,S,LOC,X,0,-d1/2
  1193  VSEL,R,LOC,Y,0,d1/2 
  1194  VSEL,R,LOC,Z,lt-l2/2+re1+d5,lt-l2/2 
  1195  CSYS,1  
  1196  VSEL,U,LOC,X,0,Re   
  1197  CSYS,0  
  1198  ASEL,S,EXT  
  1199  ASEL,R,LOC,X,-d1/2  
  1200  CM,A1,AREA  
  1201  ALLSEL,ALL  
  1202  VSEL,S,LOC,X,0,-d1/2
  1203  VSEL,R,LOC,Y,0,d1/2 
  1204  VSEL,R,LOC,Z,lt-l2/2+re1+d5,lt-l2/2 
  1205  CSYS,1  
  1206  VSEL,U,LOC,X,0,Re   
  1207  CSYS,0  
  1208  ASEL,S,EXT  
  1209  ASEL,R,LOC,Y,d1/2   
  1210  CM,A2,AREA  
  1211  CMSEL,S,A1,AREA 
  1212  CMSEL,A,A2,AREA 
  1213  ACCAT,ALL   
  1214  !   
  1215  !ALLSEL,ALL 
  1216  !VSEL,S,LOC,X,-re,-d1/2 
  1217  !VSEL,R,LOC,Y,re,d1/2   
  1218  !VSEL,R,LOC,Z,lt-l2/2,lt-l2/2-re1-d5
  1219  !ASEL,S,EXT 
  1220  !ASEL,R,LOC,X,-d1/2 
  1221  !CM,A1,AREA 
  1222  !ALLSEL,ALL 
  1223  !VSEL,S,LOC,X,-re,-d1/2 
  1224  !VSEL,R,LOC,Y,re,d1/2   
  1225  !VSEL,R,LOC,Z,lt-l2/2,lt-l2/2-re1-d5
  1226  !ASEL,S,EXT 
  1227  !ASEL,R,LOC,Y,d1/2  
  1228  !CM,A2,AREA 
  1229  !CMSEL,S,A1,AREA
  1230  !CMSEL,A,A2,AREA
  1231  !ACCAT,ALL  
  1232  !   
  1233  ALLSEL,ALL  
  1234  VSEL,S,LOC,X,-d4,-d1/2  
  1235  VSEL,R,LOC,Y,0,d3/2 
  1236  VSEL,R,LOC,Z,lt-l2/2+re1+d5,lt-l2/2 
  1237  ASEL,S,EXT  
  1238  ASEL,R,LOC,X,-d4
  1239  CM,A1,AREA  
  1240  ALLSEL,ALL  
  1241  VSEL,S,LOC,X,-d4,-d1/2  
  1242  VSEL,R,LOC,Y,0,d3/2 
  1243  VSEL,R,LOC,Z,lt-l2/2+re1+d5,lt-l2/2 
  1244  ASEL,S,EXT  
  1245  ASEL,R,LOC,Y,d3 
  1246  CM,A2,AREA  
  1247  CMSEL,S,A1,AREA 
  1248  CMSEL,A,A2,AREA 
  1249  ACCAT,ALL   
  1250  !   
  1251  ALLSEL,ALL  
  1252  VSEL,S,LOC,X,-d4,-d1/2  
  1253  VSEL,R,LOC,Y,0,d3/2 
  1254  VSEL,R,LOC,Z,lt-l2/2,lt-l2/2-re1-d5 
  1255  ASEL,S,EXT  
  1256  ASEL,R,LOC,X,-d4
  1257  CM,A1,AREA  
  1258  ALLSEL,ALL  
  1259  VSEL,S,LOC,X,-d4,-d1/2  
  1260  VSEL,R,LOC,Y,0,d3/2 
  1261  VSEL,R,LOC,Z,lt-l2/2,lt-l2/2-re1-d5 
  1262  ASEL,S,EXT  
  1263  ASEL,R,LOC,Y,d3 
  1264  CM,A2,AREA  
  1265  CMSEL,S,A1,AREA 
  1266  CMSEL,A,A2,AREA 
  1267  ACCAT,ALL   
  1268  !************************************************************!  
  1269  !****_ 		3.8 Grupos de volumes para malhar 	_****!  
  1270  !************************************************************!  
  1271  !   
  1272  ! volumes do maciço com malha mapeada  
  1273  CSYS,0  
  1274  ALLSEL,ALL  
  1275  VSEL,S,LOC,X,0,d1/2 
  1276  VSEL,R,LOC,Y,0,d1/2 
  1277  VSEL,R,LOC,Z,lt,lt-l2/2+re1+d5  
  1278  CSYS,1  
  1279  VSEL,U,LOC,X,0,Re   
  1280  CSYS,0  
  1281  CM,VA1,VOLUME   
  1282  !   
  1283  CSYS,0  
  1284  ALLSEL,ALL  
  1285  VSEL,S,LOC,X,0,-d1/2
  1286  VSEL,R,LOC,Y,0,d1/2 
  1287  VSEL,R,LOC,Z,lt,lt-l2/2+re1+d5  
  1288  CSYS,1  
  1289  VSEL,U,LOC,X,0,Re   
  1290  CSYS,0  
  1291  CM,VA2,VOLUME   
  1292  !   
  1293  CSYS,0  
  1294  ALLSEL,ALL  
  1295  VSEL,S,LOC,X,0,d1/2 
  1296  VSEL,R,LOC,Y,d1/2+0.01,d3   
  1297  VSEL,R,LOC,Z,l1+l2/2+d5,lt  
  1298  CM,VA3,VOLUME   
  1299  !   
  1300  CSYS,0  
  1301  ALLSEL,ALL  
  1302  VSEL,S,LOC,X,-d4,-d1/2  
  1303  VSEL,R,LOC,Y,0,d3/2 
  1304  VSEL,R,LOC,Z,lt,lt-l2/2+re1+d5  
  1305  CM,VA4,VOLUME   
  1306  !   
  1307  CSYS,0  
  1308  ALLSEL,ALL  
  1309  VSEL,S,LOC,X,-4*ri/(3*vpi),4*ri/(3*vpi) 
  1310  VSEL,R,LOC,Y,0,4*ri/(3*vpi) 
  1311  VSEL,R,LOC,Z,lt,lt-l2/2+re1+d5  
  1312  CM,VA5,VOLUME   
  1313  !   
  1314  CSYS,1  
  1315  ALLSEL,ALL  
  1316  VSEL,S,LOC,X,0,re   
  1317  VSEL,R,LOC,Y,0,180  
  1318  VSEL,R,LOC,Z,lt,lt-l2/2+re1+d5  
  1319  CMSEL,U,VA5,VOLUME  
  1320  CM,VA6,VOLUME   
  1321  !   
  1322  CMSEL,S,VA1,VOLU
  1323  CMSEL,A,VA2,VOLU
  1324  CMSEL,A,VA3,VOLU
  1325  CMSEL,A,VA4,VOLU
  1326  CMSEL,A,VA5,VOLU
  1327  CMSEL,A,VA6,VOLU
  1328  !   
  1329  CSYS,0  
  1330  ALLSEL,ALL  
  1331  VSEL,S,LOC,X,0,d1/2 
  1332  VSEL,R,LOC,Y,0,d1/2 
  1333  VSEL,R,LOC,Z,lt-l2/2-re1-d5,l1  
  1334  CSYS,1  
  1335  VSEL,U,LOC,X,0,Re   
  1336  CSYS,0  
  1337  CM,VB1,VOLUME   
  1338  !   
  1339  CSYS,0  
  1340  ALLSEL,ALL  
  1341  VSEL,S,LOC,X,0,-d1/2
  1342  VSEL,R,LOC,Y,0,d1/2 
  1343  VSEL,R,LOC,Z,lt-l2/2-re1-d5,l1  
  1344  CSYS,1  
  1345  VSEL,U,LOC,X,0,Re   
  1346  CSYS,0  
  1347  CM,VB2,VOLUME   
  1348  !   
  1349  CSYS,0  
  1350  ALLSEL,ALL  
  1351  VSEL,S,LOC,X,0,d1/2 
  1352  VSEL,R,LOC,Y,d1/2+0.01,d3   
  1353  VSEL,R,LOC,Z,l1,l1+l2/2-d5  
  1354  CM,VB3,VOLUME   
  1355  !   
  1356  CSYS,0  
  1357  ALLSEL,ALL  
  1358  VSEL,S,LOC,X,-d4,-d1/2  
  1359  VSEL,R,LOC,Y,0,d3/2 
  1360  VSEL,R,LOC,Z,lt-l2/2-re1-d5,l1  
  1361  CM,VB4,VOLUME   
  1362  !   
  1363  CSYS,0  
  1364  ALLSEL,ALL  
  1365  VSEL,S,LOC,X,-4*ri/(3*vpi),4*ri/(3*vpi) 
  1366  VSEL,R,LOC,Y,0,4*ri/(3*vpi) 
  1367  VSEL,R,LOC,Z,l1,l1+l2/2-re1-d5  
  1368  CM,VB5,VOLUME   
  1369  !   
  1370  CSYS,1  
  1371  ALLSEL,ALL  
  1372  VSEL,S,LOC,X,0,re   
  1373  VSEL,R,LOC,Y,0,180  
  1374  VSEL,R,LOC,Z,l1,l1+l2/2-re1-d5  
  1375  CMSEL,U,VB5,VOLUME  
  1376  CM,VB6,VOLUME   
  1377  !   
  1378  !   
  1379  CMSEL,S,VB1,VOLU
  1380  CMSEL,A,VB2,VOLU
  1381  CMSEL,A,VB3,VOLU
  1382  CMSEL,A,VB4,VOLU
  1383  CMSEL,A,VB5,VOLU
  1384  CMSEL,A,VB6,VOLU
  1385  !   
  1386  CSYS,0  
  1387  ALLSEL,ALL  
  1388  VSEL,S,LOC,X,0,d1/2 
  1389  VSEL,R,LOC,Y,0,d1/2 
  1390  VSEL,R,LOC,Z,0,l1   
  1391  CSYS,1  
  1392  VSEL,U,LOC,X,0,Re   
  1393  CSYS,0  
  1394  CM,VC1,VOLUME   
  1395  !   
  1396  CSYS,0  
  1397  ALLSEL,ALL  
  1398  VSEL,S,LOC,X,0,-d1/2
  1399  VSEL,R,LOC,Y,0,d1/2 
  1400  VSEL,R,LOC,Z,0,l1   
  1401  CSYS,1  
  1402  VSEL,U,LOC,X,0,Re   
  1403  CSYS,0  
  1404  CM,VC2,VOLUME   
  1405  !   
  1406  CSYS,0  
  1407  ALLSEL,ALL  
  1408  VSEL,S,LOC,X,0,d1/2 
  1409  VSEL,R,LOC,Y,d1/2+0.01,d3   
  1410  VSEL,R,LOC,Z,0,l1   
  1411  CM,VC3,VOLUME   
  1412  !   
  1413  CSYS,0  
  1414  ALLSEL,ALL  
  1415  VSEL,S,LOC,X,-d4,-d1/2  
  1416  VSEL,R,LOC,Y,0,d3/2 
  1417  VSEL,R,LOC,Z,0,l1   
  1418  CM,VC4,VOLUME   
  1419  !   
  1420  CSYS,0  
  1421  ALLSEL,ALL  
  1422  VSEL,S,LOC,X,-4*ri/(3*vpi),4*ri/(3*vpi) 
  1423  VSEL,R,LOC,Y,0,4*ri/(3*vpi) 
  1424  VSEL,R,LOC,Z,0,l1   
  1425  CM,VC5,VOLUME   
  1426  !   
  1427  CSYS,1  
  1428  ALLSEL,ALL  
  1429  VSEL,S,LOC,X,0,re   
  1430  VSEL,R,LOC,Y,0,180  
  1431  VSEL,R,LOC,Z,0,l1   
  1432  CMSEL,U,VC5,VOLUME  
  1433  CM,VC6,VOLUME   
  1434  !   
  1435  CMSEL,S,VC1,VOLU
  1436  CMSEL,A,VC2,VOLU
  1437  CMSEL,A,VC3,VOLU
  1438  CMSEL,A,VC4,VOLU
  1439  CMSEL,A,VC5,VOLU
  1440  CMSEL,A,VC6,VOLU
  1441  !   
  1442  CSYS,0  
  1443  CSYS,0  
  1444  ALLSEL,ALL  
  1445  VSEL,S,LOC,X,0,d1/2 
  1446  VSEL,R,LOC,Y,re1,d1/2   
  1447  VSEL,R,LOC,Z,lt-l2/2+re1+d5,lt-l2/2!-re1-d5 
  1448  CSYS,1  
  1449  VSEL,U,LOC,X,0,Re   
  1450  CSYS,0  
  1451  CM,VD1,VOLUME   
  1452  !   
  1453  CSYS,0  
  1454  ALLSEL,ALL  
  1455  VSEL,S,LOC,X,0,-d1/2
  1456  VSEL,R,LOC,Y,0,d1/2 
  1457  VSEL,R,LOC,Z,lt-l2/2+re1+d5,lt-l2/2!-re1-d5 
  1458  CSYS,1  
  1459  VSEL,U,LOC,X,0,Re   
  1460  CSYS,0  
  1461  CM,VD2,VOLUME   
  1462  !   
  1463  CSYS,0  
  1464  ALLSEL,ALL  
  1465  VSEL,S,LOC,X,0,d1/2 
  1466  VSEL,R,LOC,Y,d1/2+0.01,d3   
  1467  VSEL,R,LOC,Z,l1+l2/2+d5,l1+l2/2-d5  
  1468  CM,VD3,VOLUME   
  1469  !   
  1470  CSYS,0  
  1471  ALLSEL,ALL  
  1472  VSEL,S,LOC,X,-d4,-d1/2  
  1473  VSEL,R,LOC,Y,0,d3/2 
  1474  VSEL,R,LOC,Z,lt-l2/2+re1+d5,lt-l2/2-re1-d5  
  1475  CM,VD4,VOLUME   
  1476  !   
  1477  CSYS,0  
  1478  ALLSEL,ALL  
  1479  VSEL,S,LOC,X,0,4*ri/(3*vpi) 
  1480  VSEL,R,LOC,Y,0,4*ri/(3*vpi) 
  1481  VSEL,R,LOC,Z,lt-l2/2+re1+d5,lt-l2/2-re1-d5  
  1482  CM,VD51,VOLUME  
  1483  !   
  1484  CSYS,0  
  1485  ALLSEL,ALL  
  1486  VSEL,S,LOC,X,-4*ri/(3*vpi),0
  1487  VSEL,R,LOC,Y,0,4*ri/(3*vpi) 
  1488  VSEL,R,LOC,Z,lt-l2/2+re1+d5,lt-l2/2-re1-d5  
  1489  CM,VD52,VOLUME  
  1490  !   
  1491  CSYS,1  
  1492  ALLSEL,ALL  
  1493  VSEL,S,LOC,X,0,re   
  1494  VSEL,R,LOC,Y,0,90   
  1495  VSEL,R,LOC,Z,lt-l2/2+re1+d5,lt-l2/2-re1-d5  
  1496  CMSEL,U,VD51,VOLUME 
  1497  CM,VD61,VOLUME  
  1498  !   
  1499  CSYS,1  
  1500  ALLSEL,ALL  
  1501  VSEL,S,LOC,X,0,re   
  1502  VSEL,R,LOC,Y,90,180 
  1503  VSEL,R,LOC,Z,lt-l2/2+re1+d5,lt-l2/2-re1-d5  
  1504  CMSEL,U,VD52,VOLUME 
  1505  CM,VD62,VOLUME  
  1506  !   
  1507  CSYS,0  
  1508  ALLSEL,ALL  
  1509  VSEL,S,LOC,X,re,d1/2
  1510  VSEL,R,LOC,Y,0,4*ri1/(3*vpi)
  1511  VSEL,R,LOC,Z,lt-l2/2+re1,lt-l2/2-re1
  1512  CM,VD7,VOLUME   
  1513  !   
  1514  CSYS,0  
  1515  ALLSEL,ALL  
  1516  VSEL,S,LOC,X,re,d1/2
  1517  VSEL,R,LOC,Y,0,re1  
  1518  VSEL,R,LOC,Z,lt-l2/2+re1,lt-l2/2-re1
  1519  CMSEL,U,VD7,VOLUME  
  1520  CM,VD8,VOLUME   
  1521  !   
  1522  CMSEL,S,VD1,VOLU
  1523  CMSEL,A,VD2,VOLU
  1524  CMSEL,A,VD3,VOLU
  1525  CMSEL,A,VD4,VOLU
  1526  CMSEL,A,VD51,VOLU   
  1527  CMSEL,A,VD52,VOLU   
  1528  CMSEL,A,VD61,VOLU   
  1529  CMSEL,A,VD62,VOLU   
  1530  CMSEL,A,VD7,VOLU
  1531  CMSEL,A,VD8,VOLU
  1532  !   
  1533  ! Dividindo volumes na galeria em volumes menores   
  1534  CMSEL,S,VD7,VOLU
  1535  CMSEL,A,VD8,VOLU
  1536  CSYS,0  
  1537  WPAVE,0,0,0 
  1538  WPAVE,re,0,l1+l2/2  
  1539  WPRO,,,90   
  1540  *DO,i,1,np1-1,1 
  1541  	WPOFFS,0,0,Lp1 
  1542  	VSBW,ALL   
  1543  *ENDDO  
  1544  !   
  1545  ! Dividindo volumes no encontro do tunel longitudinal com a galeria 
  1546  CMSEL,S,VD51,VOLU   
  1547  CMSEL,A,VD52,VOLU   
  1548  CMSEL,A,VD61,VOLU   
  1549  CMSEL,A,VD62,VOLU   
  1550  CSYS,0  
  1551  WPAVE,0,0,0 
  1552  WPCSYS,-1,0 
  1553  WPAVE,0,0,l1+l2/2   
  1554  nescgal = (d5+re1)/Lp   
  1555  *DO,i,1,nescgal-1,1 
  1556  	WPOFFS,0,0,Lp  
  1557  	VSBW,ALL   
  1558  *ENDDO  
  1559  !   
  1560  ! Refazendo os componentes de volumes da região da galeria 
  1561  CSYS,0  
  1562  ALLSEL,ALL  
  1563  VSEL,S,LOC,X,0,4*ri/(3*vpi) 
  1564  VSEL,R,LOC,Y,0,4*ri/(3*vpi) 
  1565  VSEL,R,LOC,Z,lt-l2/2+re1+d5,lt-l2/2!-re1!-d5
  1566  CM,VD51,VOLUME  
  1567  !   
  1568  CSYS,0  
  1569  ALLSEL,ALL  
  1570  VSEL,S,LOC,X,-4*ri/(3*vpi),0
  1571  VSEL,R,LOC,Y,0,4*ri/(3*vpi) 
  1572  VSEL,R,LOC,Z,lt-l2/2+re1+d5,lt-l2/2!-re1!-d5
  1573  CM,VD52,VOLUME  
  1574  !   
  1575  CSYS,1  
  1576  ALLSEL,ALL  
  1577  VSEL,S,LOC,X,0,re   
  1578  VSEL,R,LOC,Y,0,90   
  1579  VSEL,R,LOC,Z,lt-l2/2+re1+d5,lt-l2/2!-re1!-d5
  1580  CMSEL,U,VD51,VOLUME 
  1581  CM,VD61,VOLUME  
  1582  !   
  1583  CSYS,1  
  1584  ALLSEL,ALL  
  1585  VSEL,S,LOC,X,0,re   
  1586  VSEL,R,LOC,Y,90,180 
  1587  VSEL,R,LOC,Z,lt-l2/2+re1+d5,lt-l2/2!-re1!-d5
  1588  CMSEL,U,VD52,VOLUME 
  1589  CM,VD62,VOLUME  
  1590  !   
  1591  CSYS,0  
  1592  ALLSEL,ALL  
  1593  VSEL,S,LOC,X,re,d1/2
  1594  VSEL,R,LOC,Y,0,4*ri1/(3*vpi)
  1595  VSEL,R,LOC,Z,lt-l2/2+re1,lt-l2/2!-re1   
  1596  CM,VD7,VOLUME   
  1597  !   
  1598  CSYS,0  
  1599  ALLSEL,ALL  
  1600  VSEL,S,LOC,X,re,d1/2
  1601  VSEL,R,LOC,Y,0,re1  
  1602  VSEL,R,LOC,Z,lt-l2/2+re1,lt-l2/2!-re1   
  1603  CMSEL,U,VD7,VOLUME  
  1604  CM,VD8,VOLUME   
  1605  !   
  1606  CMSEL,S,VD51,VOLU   
  1607  CMSEL,A,VD52,VOLU   
  1608  CMSEL,A,VD61,VOLU   
  1609  CMSEL,A,VD62,VOLU   
  1610  CMSEL,A,VD7,VOLU
  1611  CMSEL,A,VD8,VOLU
  1612  !   
  1613  ! juntando pontos duplicados
  1614  ALLSEL,ALL  
  1615  NUMMRG,KP, , , ,LOW 
  1616  !   
  1617  ! renumerando a geometria   
  1618  NUMCMP,KP   
  1619  NUMCMP,LINE 
  1620  NUMCMP,AREA 
  1621  NUMCMP,VOLU 
  1622  !   
  1623  !************************************************************!  
  1624  !****_ 		3.9 Criando malhas 			_****!   
  1625  !************************************************************!  
  1626  !   
  1627  ! malha sweep   
  1628  MSHAPE,0,3d 
  1629  MSHKEY,1
  1630  TYPE, tipoelem  
  1631  ALLSEL,ALL  
  1632  CMSEL,S,VA5,VOLUME  
  1633  CMSEL,A,VA6,VOLUME  
  1634  VSWEEP,ALL  
  1635  !   
  1636  ! malha mapeada 
  1637  MSHAPE,0,3d ! 0 - hexaedro, 1 - tetraedro   
  1638  MSHKEY,1
  1639  TYPE, tipoelem  
  1640  ALLSEL,ALL  
  1641  CMSEL,S,VA1,VOLUME  
  1642  CMSEL,A,VA2,VOLUME  
  1643  CMSEL,A,VA3,VOLUME  
  1644  CMSEL,A,VA4,VOLUME  
  1645  CMSEL,A,VB3,VOLUME  
  1646  CMSEL,A,VB4,VOLUME  
  1647  CMSEL,A,VC3,VOLUME  
  1648  CMSEL,A,VC4,VOLUME  
  1649  CMSEL,A,VD3,VOLUME  
  1650  CMSEL,A,VD4,VOLUME  
  1651  VSWEEP,ALL  
  1652  !   
  1653  ! malha livre regiao da galeria 
  1654  MSHAPE,1,3d 
  1655  MSHKEY,0
  1656  TYPE, tipoelem1 
  1657  ALLSEL,ALL  
  1658  CMSEL,S,VD51,VOLUME 
  1659  CMSEL,A,VD52,VOLUME 
  1660  CMSEL,A,VD61,VOLUME 
  1661  CMSEL,A,VD62,VOLUME 
  1662  CMSEL,A,VD7,VOLUME  
  1663  CMSEL,A,VD8,VOLUME  
  1664  ASLV,S  
  1665  LSLA,S  
  1666  LESIZE,ALL,m4ga, , , ,1, , ,1,  
  1667  VMESH,ALL   
  1668  !   
  1669  ! PAREI AQUI
  1670  !   
  1671  ! malha livre em torno da região da galeria
  1672  MSHAPE,1,3d 
  1673  MSHKEY,0
  1674  TYPE, tipoelem1 
  1675  ALLSEL,ALL  
  1676  CMSEL,S,VD1,VOLUME  
  1677  CMSEL,A,VD2,VOLUME  
  1678  VMESH,ALL   
  1679  !   
  1680  ! Espelhando volumes e elementos da metade da galeria   
  1681  ALLSEL,ALL  
  1682  CMSEL,S,VD51,VOLUME 
  1683  CMSEL,A,VD52,VOLUME 
  1684  CMSEL,A,VD61,VOLUME 
  1685  CMSEL,A,VD62,VOLUME 
  1686  CMSEL,A,VD7,VOLUME  
  1687  CMSEL,A,VD8,VOLUME  
  1688  CMSEL,A,VD1,VOLUME  
  1689  CMSEL,A,VD2,VOLUME  
  1690  ESLV,S  
  1691  !   
  1692  ! Espelhando a malha na galeria 
  1693  WPAVE,0,0,0 
  1694  WPCSYS,-1,0 
  1695  WPAVE,d1/2,0,l1+l2/2
  1696  CSYS,4  
  1697  VSYMM,Z,all, , , ,0,0   
  1698  !   
  1699  ! junta nós repetidos e mantém a numeração mais baixa   
  1700  CSYS,0  
  1701  ALLSEL,ALL  
  1702  NUMMRG,node, , , ,LOW   
  1703  NUMCMP,ALL  
  1704  !   
  1705  ! criando os volumes da região espelhada da galeria
  1706  CSYS,0  
  1707  ALLSEL,ALL  
  1708  VSEL,S,LOC,X,re,d1/2
  1709  VSEL,R,LOC,Y,re1,d1/2   
  1710  VSEL,R,LOC,Z,lt-l2/2,lt-l2/2-re1-d5 
  1711  CM,VE1,VOLUME   
  1712  !   
  1713  CSYS,0  
  1714  ALLSEL,ALL  
  1715  VSEL,S,LOC,X,-re,-d1/2  
  1716  VSEL,R,LOC,Y,re,d1/2
  1717  VSEL,R,LOC,Z,lt-l2/2,lt-l2/2-re1-d5 
  1718  CM,VE2,VOLUME   
  1719  !   
  1720  CSYS,0  
  1721  ALLSEL,ALL  
  1722  VSEL,S,LOC,X,0,4*ri/(3*vpi) 
  1723  VSEL,R,LOC,Y,0,4*ri/(3*vpi) 
  1724  VSEL,R,LOC,Z,lt-l2/2,lt-l2/2-re1-d5 
  1725  CM,VE51,VOLUME  
  1726  !   
  1727  CSYS,0  
  1728  ALLSEL,ALL  
  1729  VSEL,S,LOC,X,-4*ri/(3*vpi),0
  1730  VSEL,R,LOC,Y,0,4*ri/(3*vpi) 
  1731  VSEL,R,LOC,Z,lt-l2/2,lt-l2/2-re1-d5 
  1732  CM,VE52,VOLUME  
  1733  !   
  1734  CSYS,1  
  1735  ALLSEL,ALL  
  1736  VSEL,S,LOC,X,0,re   
  1737  VSEL,R,LOC,Y,0,90   
  1738  VSEL,R,LOC,Z,lt-l2/2,lt-l2/2-re1-d5 
  1739  CMSEL,U,VE51,VOLUME 
  1740  CM,VE61,VOLUME  
  1741  !   
  1742  CSYS,1  
  1743  ALLSEL,ALL  
  1744  VSEL,S,LOC,X,0,re   
  1745  VSEL,R,LOC,Y,90,180 
  1746  VSEL,R,LOC,Z,lt-l2/2,lt-l2/2-re1-d5 
  1747  CMSEL,U,VE52,VOLUME 
  1748  CM,VE62,VOLUME  
  1749  !   
  1750  CSYS,0  
  1751  ALLSEL,ALL  
  1752  VSEL,S,LOC,X,re,d1/2
  1753  VSEL,R,LOC,Y,0,4*ri1/(3*vpi)
  1754  VSEL,R,LOC,Z,lt-l2/2,lt-l2/2-re1
  1755  CM,VE7,VOLUME   
  1756  !   
  1757  CSYS,0  
  1758  ALLSEL,ALL  
  1759  VSEL,S,LOC,X,re,d1/2
  1760  VSEL,R,LOC,Y,0,re1  
  1761  VSEL,R,LOC,Z,lt-l2/2,lt-l2/2-re1
  1762  CMSEL,U,VD7,VOLUME  
  1763  CM,VE8,VOLUME   
  1764  !   
  1765  ! junta nós repetidos e mantém a numeração mais baixa   
  1766  CSYS,0  
  1767  ALLSEL,ALL  
  1768  NUMMRG,KP, , , ,LOW 
  1769  NUMCMP,ALL							   
  1770  !   
  1771  ! malha sweep da região a posteriori da galeria
  1772  MSHAPE,0,3d 
  1773  MSHKEY,1
  1774  TYPE, tipoelem  
  1775  ALLSEL,ALL  
  1776  CMSEL,S,VB5,VOLUME  
  1777  CMSEL,A,VB6,VOLUME  
  1778  CMSEL,A,VC5,VOLUME  
  1779  VSWEEP,ALL  
  1780  !   
  1781  MSHAPE,0,3d 
  1782  MSHKEY,1
  1783  TYPE, tipoelem  
  1784  ALLSEL,ALL  
  1785  CMSEL,S,VC6,VOLUME  
  1786  VSWEEP,ALL  
  1787  !   
  1788  ! malha mapeada da região a posteriori da galeria  
  1789  MSHAPE,0,3d ! 0 - hexaedro, 1 - tetraedro   
  1790  MSHKEY,1
  1791  TYPE, tipoelem  
  1792  ALLSEL,ALL  
  1793  CMSEL,S,VB1,VOLUME  
  1794  CMSEL,A,VB2,VOLUME  
  1795  CMSEL,A,VC1,VOLUME  
  1796  CMSEL,A,VC2,VOLUME  
  1797  VSWEEP,ALL  
  1798  !	  
  1799  ALLSEL,ALL  
  1800  CMSEL,S,VE51,VOLUME 
  1801  CMSEL,A,VE52,VOLUME 
  1802  CMSEL,A,VE61,VOLUME 
  1803  CMSEL,A,VE62,VOLUME 
  1804  CMSEL,A,VE7,VOLUME  
  1805  CMSEL,A,VE8,VOLUME  
  1806  !   
  1807  ! junta nós repetidos e mantém a numeração mais baixa   
  1808  CSYS,0  
  1809  ALLSEL,ALL  
  1810  NUMMRG,node, , , ,LOW   
  1811  NUMCMP,ALL  
  1812  !							
  1813  !************************************************************!  
  1814  !****_ 		3.10 Grupos elementos do revestimento 	_****!  
  1815  !************************************************************!  
  1816  !   
  1817  ! gerando grupo de elementos com o revestimento do tunel longitudinal   
  1818  ALLSEL,ALL  
  1819  LOCAL,11,1,0,0,0
  1820  ESEL,ALL
  1821  ESEL,S,CENT,Z,lt,l1 
  1822  ESEL,R,CENT,X,ri,re 
  1823  ESEL,R,CENT,Y,0,180 
  1824  CM,Casca1,ELEM  
  1825  !   
  1826  ! gerando grupo de elementos com o revestimento das galerias transversais   
  1827  LOCAL,12,1,re,0,lt-l2/2,0,0,90  
  1828  VSEL,ALL
  1829  VSEL,S,LOC,Z,-esp,d1/2  
  1830  VSEL,R,LOC,X,0,re1  
  1831  VSEL,R,LOC,Y,0,180  
  1832  CM,VG1,VOLUME   
  1833  ESLV,S  
  1834  ESEL,R,CENT,Z,-re,d1/2-re   
  1835  ESEL,R,CENT,X,ri1,re1-0.001 
  1836  ESEL,R,CENT,Y,0,180 
  1837  CM,Casca2,ELEM  
  1838  !   
  1839  !   
  1840  !************************************************************!  
  1841  !****_		3.11 Alterando a cor dos elementos	_****!   
  1842  !************************************************************!  
  1843  !   
  1844  ! mudando a cor da janela   
  1845  /RGB,INDEX,100,100,100,0
  1846  /RGB,INDEX,0,0,0,15 
  1847  !   
  1848  ! região adjacente ao túnel   
  1849  ALLSEL,ALL  
  1850  CMSEL,S,VA1,VOLUME  
  1851  CMSEL,A,VA2,VOLUME  
  1852  CMSEL,A,VB1,VOLUME  
  1853  CMSEL,A,VB2,VOLUME  
  1854  CMSEL,A,VC1,VOLUME  
  1855  CMSEL,A,VC2,VOLUME  
  1856  CMSEL,A,VD1,VOLUME  
  1857  CMSEL,A,VD2,VOLUME  
  1858  CMSEL,A,VE1,VOLUME  
  1859  CMSEL,A,VE2,VOLUME  
  1860  ESLV,S  
  1861  /COLOR,ELEM,14,ALL  
  1862  !   
  1863  ! região escavada e externa
  1864  ALLSEL,ALL  
  1865  CMSEL,S,VA3,VOLUME  
  1866  CMSEL,A,VA4,VOLUME  
  1867  CMSEL,A,VA5,VOLUME  
  1868  CMSEL,A,VB3,VOLUME  
  1869  CMSEL,A,VB4,VOLUME  
  1870  CMSEL,A,VB5,VOLUME  
  1871  CMSEL,A,VC3,VOLUME  
  1872  CMSEL,A,VC4,VOLUME  
  1873  CMSEL,A,VC5,VOLUME  
  1874  CMSEL,A,VD3,VOLUME  
  1875  CMSEL,A,VD4,VOLUME  
  1876  CMSEL,A,VD51,VOLUME 
  1877  CMSEL,A,VD52,VOLUME 
  1878  CMSEL,A,VE51,VOLUME 
  1879  CMSEL,A,VE52,VOLUME 
  1880  CMSEL,A,VD7,VOLUME  
  1881  CMSEL,A,VE7,VOLUME  
  1882  ESLV,S  
  1883  /COLOR,ELEM,13,ALL  
  1884  !   
  1885  ! região da casca do túnel longitudinal   
  1886  ALLSEL,ALL  
  1887  CMSEL,S,Casca1,ELEM 
  1888  /COLOR,ELEM,6,ALL   
  1889  !   
  1890  ! região da casca da galeria transversal   
  1891  ALLSEL,ALL  
  1892  CMSEL,S,Casca2,ELEM 
  1893  /COLOR,ELEM,12,ALL  
  1894  !   
  1895  ! plotar elementos da casca 
  1896  CMSEL,S,Casca1,ELEM 
  1897  CMSEL,A,Casca2,ELEM 
  1898  EPLOT   
  1899  !   
  1900  !************************************************************!  
  1901  !****_ 		3.12 Condições de contorno		_****!   
  1902  !************************************************************!  
  1903  CSYS,0  
  1904  ! aplica tensões iniciais  
  1905  ALLSEL,ALL  
  1906  INISTATE, DEFINE,,,,,-prx,-pry,-prz,0,0,0   
  1907  !   
  1908  !Aplica condição de simetria na face direita do modelo
  1909  LOCAL,11,0,0,0,0
  1910  ALLSEL,ALL  
  1911  ASEL,S,LOC,X,d1/2,d1/2  
  1912  DA,ALL,SYMM 
  1913  !   
  1914  ! Aplica condições de simetria na face de baixo do modelo 
  1915  LOCAL,11,0,0,0,0
  1916  ALLSEL,ALL  
  1917  ASEL,S,LOC,Y,0,0
  1918  DA,ALL,SYMM 
  1919  !   
  1920  !Deslocamento zero em Z, face frontal   
  1921  LOCAL,11,0,0,0,0
  1922  ALLSEL,ALL  
  1923  ASEL,S,LOC,Z,lt,lt  
  1924  DA,ALL,UZ,0 
  1925  !   
  1926  ! Aplica pressão na face superior  
  1927  LOCAL,11,0,0,0,0
  1928  ALLSEL,ALL  
  1929  ASEL,S,LOC,Y,d3,d3  
  1930  ASEL,U,ACCA,
  1931  SFA,ALL,1,PRES,pry  
  1932  !   
  1933  ! Aplica pressão na face esquerda do modelo
  1934  LOCAL,11,0,0,0,0
  1935  ALLSEL,ALL  
  1936  ASEL,S,LOC,X,-d4,-d4
  1937  ASEL,U,ACCA,
  1938  SFA,ALL,1,PRES,prx  
  1939  !   
  1940  ! Aplica pressão na face do fundo  
  1941  LOCAL,11,0,0,0,0
  1942  ALLSEL,ALL  
  1943  ASEL,S,LOC,z,0,0
  1944  ASEL,U,ACCA,
  1945  SFA,ALL,1,PRES,prz  
  1946  !   
  1947  !************************************************************!  
  1948  !****_ 		3.13 Criando elementos do revestimento	_****!  
  1949  !************************************************************!  
  1950  ! Obs: esses elementos ficam sobrepostos ao do solo. Durante
  1951  ! a análise, conforme vai desligando os elementos do   
  1952  ! macicço vai-se ligando os do resvestimento, se houver.   
  1953  !   
  1954  *IF,matrev,NE,0,THEN
  1955  	CMSEL,S,Casca1,ELEM
  1956  	EGEN,2,0,ALL,ALL,1,1,,,,0,0,0  
  1957  	ESEL,ALL   
  1958  	NUMMRG,NODE, , , ,LOW  
  1959  	ESEL,MAT,2 
  1960  	CM,Revestimento1,ELEM  
  1961  *ENDIF  
  1962  !   
  1963  *IF,matrev,NE,0,THEN
  1964  	CMSEL,S,Casca2,ELEM
  1965  	EGEN,2,0,ALL,ALL,1,1,,,,0,0,0  
  1966  	ESEL,ALL   
  1967  	NUMMRG,NODE, , , ,LOW  
  1968  	ESEL,MAT,2 
  1969  	CMSEL,U,Revestimento1,ELEM 
  1970  	CM,Revestimento2,ELEM  
  1971  *ENDIF  
  1972  !   
  1973  !************************************************************!  
  1974  !****_ 		3.14 Grupos Esc-rev tunel longitudinal 	_****! 
  1975  !************************************************************!  
  1976  !   
  1977  ! Primeira escavação  
  1978  i = 1   
  1979  LOCAL,11,1,0,0,lt,0,0,180,0 
  1980  ESEL,ALL
  1981  fi=0
  1982  ff=npi*Lp   
  1983  ESEL,S,CENT,Z,fi,ff 
  1984  ESEL,R,CENT,X,0,re  
  1985  ESEL,R,CENT,Y,0,180 
  1986  CM,Lesc %i%,ELEM
  1987  CMSEL,S,Lesc %i%,ELEM   
  1988  !   
  1989  ! Proximas escavações e resvestimentos
  1990  *DO,i,2,nesc,1  
  1991  	! criando grupos com os elementos escavados do passo i 
  1992  	fi=ff  
  1993  	ff=(i-1)*Lp+npi*lp 
  1994  	ESEL,S,CENT,Z,fi,ff
  1995  	ESEL,R,CENT,X,0,re 
  1996  	ESEL,R,CENT,Y,0,180
  1997  	CM,Lesc %i%,ELEM   
  1998  	CMSEL,S,Lesc %i%,ELEM  
  1999  	!  
  2000  	*IF,matrev,NE,0,THEN   
  2001  		! criando grupos com os elementos revestidos do passo i   
  2002  		*IF,i,EQ,2,THEN   
  2003  			fi=0 
  2004  		*ELSE 
  2005  			fi=npi*lp+(i-2)*lp-(lp+d0)   
  2006  		*ENDIF
  2007  		ff = (i-1)*lp+npi*lp-(lp+d0)  
  2008  		ESEL,ALL  
  2009  		ESEL,S,CENT,Z,fi,ff   
  2010  		ESEL,R,CENT,X,ri,re   
  2011  		ESEL,R,CENT,Y,0,180   
  2012  		ESEL,R,MAT,,2 
  2013  		MPCHG,i,ALL   
  2014  		CM,Lrev %i-1%,ELEM
  2015  		CMSEL,S,Lrev %i-1%,ELEM   
  2016  	*ENDIF 
  2017  	!  
  2018  	! revestindo o ultimo trecho   
  2019  	*IF,i,EQ,nesc,THEN 
  2020  		*IF,matrev,NE,0,THEN  
  2021  			*IF,revested0,EQ,1,THEN  
  2022  				fi=l2-lp-d0 
  2023  				ff=l2   
  2024  				ESEL,S,CENT,Z,fi,ff 
  2025  				ESEL,R,CENT,X,ri,re 
  2026  				ESEL,R,CENT,Y,0,180 
  2027  				ESEL,R,MAT,,2   
  2028  				MPCHG,i,ALL 
  2029  				CM,Lrev %i%,ELEM
  2030  				CMSEL,S,Lrev %i%,ELEM   
  2031  			*ENDIF   
  2032  			*IF,revesteface,EQ,1,THEN
  2033  				fi=l2   
  2034  				ff=l2+(lp)  
  2035  				ESEL,ALL
  2036  				ESEL,S,CENT,Z,fi,ff 
  2037  				ESEL,R,CENT,X,0,re  
  2038  				ESEL,R,CENT,Y,0,180 
  2039  				CM,soloface,ELEM
  2040  				CMSEL,S,soloface,ELEM   
  2041  				!   
  2042  				fi=l2   
  2043  				ff=l2+lp
  2044  				ESEL,ALL
  2045  				ESEL,S,CENT,Z,fi,ff 
  2046  				ESEL,R,CENT,X,0,re  
  2047  				ESEL,R,CENT,Y,0,180 
  2048  				EGEN,2,0,all,all,1,1,,,,0,0,0   
  2049  				NUMMRG,node, , , ,LOW   
  2050  				ESEL,R,MAT,,2   
  2051  				MPCHG,i,ALL 
  2052  				CM,Lrevface,ELEM
  2053  				CMSEL,S,Lrevface,ELEM   
  2054  			*ENDIF   
  2055  		*ENDIF
  2056  	*ENDIF 
  2057  *ENDDO  
  2058  !   
  2059  ! criando grupo de elementos escavados  
  2060  ESEL,S,CENT,Z,0,l2  
  2061  ESEL,R,CENT,X,0,re  
  2062  ESEL,R,CENT,Y,0,180 
  2063  CM,esctotallongitudinal,ELEM
  2064  CSYS,0  
  2065  !   
  2066  !********************************************************************************************!  
  2067  !****_ 		3.15 Grupos esc-rev das galerias	_****!
  2068  !********************************************************************************************!  
  2069      
  2070  !   
  2071  ! Primeira escavação da primeira galeria  
  2072  i = 1   
  2073  LOCAL,12,1,re,0,lt-l2/2,0,0,90  
  2074  fi=-re  
[...]

 *** WARNING ***                         CP =     273.672   TIME= 16:30:32
 Parameter CONVERGENCEY already exists.  It is deleted and redefined by  
 the *DIM command.                                                       

 SET PARAMETER DIMENSIONS ON  STRESSX TYPE=TABL  DIMENSIONS=    37     3     1
                              

 *** WARNING ***                         CP =     273.672   TIME= 16:30:32
 Parameter STRESSX already exists.  It is deleted and redefined by the   
 *DIM command.                                                           

 SET PARAMETER DIMENSIONS ON  STRESSY TYPE=TABL  DIMENSIONS=    37     3     1
                              

 *** WARNING ***                         CP =     273.672   TIME= 16:30:32
 Parameter STRESSY already exists.  It is deleted and redefined by the   
 *DIM command.                                                           

 SET PARAMETER DIMENSIONS ON  COORDZ TYPE=ARRA  DIMENSIONS= 18364     1     1

 *** WARNING ***                         CP =     273.672   TIME= 16:30:32
 Parameter COORDZ already exists.  It is deleted and redefined by the    
 *DIM command.                                                           

 SET PARAMETER DIMENSIONS ON  ORDER TYPE=ARRA  DIMENSIONS=    37     1     1

 *** WARNING ***                         CP =     273.672   TIME= 16:30:32
 Parameter ORDER already exists.  It is deleted and redefined by the     
 *DIM command.                                                           

 SET PARAMETER DIMENSIONS ON  U_X TYPE=ARRA  DIMENSIONS= 18364     1     1

 *** WARNING ***                         CP =     273.672   TIME= 16:30:32
 Parameter U_X already exists.  It is deleted and redefined by the *DIM  
 command.                                                                

 SET PARAMETER DIMENSIONS ON  U_Y TYPE=ARRA  DIMENSIONS= 18364     1     1

 *** WARNING ***                         CP =     273.672   TIME= 16:30:32
 Parameter U_Y already exists.  It is deleted and redefined by the *DIM  
 command.                                                                

 SET PARAMETER DIMENSIONS ON  S_X TYPE=ARRA  DIMENSIONS= 18364     1     1

 *** WARNING ***                         CP =     273.672   TIME= 16:30:32
 Parameter S_X already exists.  It is deleted and redefined by the *DIM  
 command.                                                                

 SET PARAMETER DIMENSIONS ON  S_Y TYPE=ARRA  DIMENSIONS= 18364     1     1

 *** WARNING ***                         CP =     273.672   TIME= 16:30:32
 Parameter S_Y already exists.  It is deleted and redefined by the *DIM  
 command.                                                                

 SET PARAMETER DIMENSIONS ON  N_SEL TYPE=ARRA  DIMENSIONS= 18364     1     1

 *** WARNING ***                         CP =     273.672   TIME= 16:30:32
 Parameter N_SEL already exists.  It is deleted and redefined by the     
 *DIM command.                                                           

 VECTOR GET OPERATION  convergencex(1,1)  VECTOR LENGTH=      37
 NAME= NODE         0  NLIS      

 VECTOR GET OPERATION  convergencey(1,1)  VECTOR LENGTH=      37
 NAME= NODE         0  NLIS      

 VECTOR GET OPERATION  stressx(1,1)  VECTOR LENGTH=      37
 NAME= NODE         0  NLIS      

 VECTOR GET OPERATION  stressy(1,1)  VECTOR LENGTH=      37
 NAME= NODE         0  NLIS      

 VECTOR GET OPERATION  n_sel(1)  VECTOR LENGTH=   18364
 NAME= NODE         1  NSEL      

 VECTOR GET OPERATION  coordz(1)  VECTOR LENGTH=   18364
 NAME= NODE         1  LOC   Y   

 VECTOR PARAMETER OPERATION *VOPER  
  coordz(1)        = coordz(1)        MULT 1               
  VECTOR LENGTH=   18364

 SET MASK VECTOR TO  N_SEL(1:18364)

 VECTOR PARAMETER OPERATION *VFUN   
  convergencex(1,2) = COMP  coordz(1)
 VECTOR LENGTH=      37

 SET MASK VECTOR TO  N_SEL(1:18364)

 VECTOR PARAMETER OPERATION *VFUN   
  convergencey(1,2) = COMP  coordz(1)
 VECTOR LENGTH=      37

 SET MASK VECTOR TO  N_SEL(1:18364)

 VECTOR PARAMETER OPERATION *VFUN   
  stressx(1,2) = COMP  coordz(1)
 VECTOR LENGTH=      37

 SET MASK VECTOR TO  N_SEL(1:18364)

 VECTOR PARAMETER OPERATION *VFUN   
  stressy(1,2) = COMP  coordz(1)
 VECTOR LENGTH=      37

 *DO LOOP ON PARAMETER= I FROM  1.0000     TO  1.0000     BY  1.0000    

 *IF  i                                 ( =   1.00000     )  EQ  
      nanalises                         ( =   1.00000     )  THEN    

 STORE RESULTS DATA FOR THE CURRENTLY SELECTED MODEL
 USE LAST SUBSTEP ON RESULT FILE  FOR LOAD CASE 0 

 SET COMMAND GOT LOAD STEP=     1  SUBSTEP=     1  CUMULATIVE ITERATION=     2
   TIME/FREQUENCY=  1.0000    
 TITLE=  Re=4 matmacico=1 E1=500 pr=%pr% matrev=0 E2=30303.3845 vp=12.5         

 *ELSE

 *ENDIF

 SET MASK VECTOR TO  N_SEL(1:18364)

 VECTOR GET OPERATION  u_x(1)  VECTOR LENGTH=   18364
 NAME= NODE         1  U     X   

 VECTOR PARAMETER OPERATION *VOPER  
  u_x(1)           = u_x(1)           MULT -1/Re*100       
  VECTOR LENGTH=   18364

 SET MASK VECTOR TO  N_SEL(1:18364)

 VECTOR GET OPERATION  u_y(1)  VECTOR LENGTH=   18364
 NAME= NODE         1  U     Y   

 VECTOR PARAMETER OPERATION *VOPER  
  u_y(1)           = u_y(1)           MULT -1/Re*100       
  VECTOR LENGTH=   18364

 SET MASK VECTOR TO  N_SEL(1:18364)

 VECTOR GET OPERATION  s_x(1)  VECTOR LENGTH=   18364
 NAME= NODE         1  S     X   

 *** WARNING ***                         CP =     275.516   TIME= 16:30:34
 The selected element set contains mixed element stiffness types.        
  This could invalidate error estimation.                                

 *** WARNING ***                         CP =     276.188   TIME= 16:30:35
 Some entities requested in the *VGET were undefined.                    

 VECTOR PARAMETER OPERATION *VOPER  
  s_x(1)           = s_x(1)           MULT 1               
  VECTOR LENGTH=   18364

 SET MASK VECTOR TO  N_SEL(1:18364)

 VECTOR GET OPERATION  s_y(1)  VECTOR LENGTH=   18364
 NAME= NODE         1  S     Y   

 *** WARNING ***                         CP =     276.188   TIME= 16:30:35
 Some entities requested in the *VGET were undefined.                    

 VECTOR PARAMETER OPERATION *VOPER  
  s_y(1)           = s_y(1)           MULT 1               
  VECTOR LENGTH=   18364

 SET MASK VECTOR TO  N_SEL(1:18364)

 VECTOR PARAMETER OPERATION *VFUN   
  convergencex(1,2+i) = COMP  u_x(1)
 VECTOR LENGTH=      37

 SET MASK VECTOR TO  N_SEL(1:18364)

 VECTOR PARAMETER OPERATION *VFUN   
  convergencey(1,2+i) = COMP  u_y(1)
 VECTOR LENGTH=      37

 SET MASK VECTOR TO  N_SEL(1:18364)

 VECTOR PARAMETER OPERATION *VFUN   
  stressx(1,2+i) = COMP  s_x(1)
 VECTOR LENGTH=      37

 SET MASK VECTOR TO  N_SEL(1:18364)

 VECTOR PARAMETER OPERATION *VFUN   
  stressy(1,2+i) = COMP  s_y(1)
 VECTOR LENGTH=      37

 *ENDDO  INDEX= I                               

 ARRAY SORT OPERATION  RESULT ORDER VECTOR= ORDER           
  ARRAY NAME= convergencex    
  SORT VECTOR= convergencex(1,2
 MATRIX SIZE=      37 ROWS  BY        3 COLUMNS

 ARRAY SORT OPERATION  RESULT ORDER VECTOR= ORDER           
  ARRAY NAME= convergencey    
  SORT VECTOR= convergencey(1,2
 MATRIX SIZE=      37 ROWS  BY        3 COLUMNS

 ARRAY SORT OPERATION  RESULT ORDER VECTOR= ORDER           
  ARRAY NAME= stressx         
  SORT VECTOR= stressx(1,2)    
 MATRIX SIZE=      37 ROWS  BY        3 COLUMNS

 ARRAY SORT OPERATION  RESULT ORDER VECTOR= ORDER           
  ARRAY NAME= stressy         
  SORT VECTOR= stressy(1,2)    
 MATRIX SIZE=      37 ROWS  BY        3 COLUMNS

 VECTOR PARAMETER OPERATION *VSCFUN 
  UXMAXIMOFINAL = MAX  convergencex(1,2
 VECTOR LENGTH=      37
 RESULT= 0.56015    

 VECTOR PARAMETER OPERATION *VSCFUN 
  UYMAXIMOFINAL = MAX  convergencey(1,2
 VECTOR LENGTH=      37
 RESULT= 0.56110E-01

 VECTOR PARAMETER OPERATION *VSCFUN 
  SXMAXIMOFINAL = MAX  stressx(1,2+nana
 VECTOR LENGTH=      37
 RESULT=  0.0000    

 VECTOR PARAMETER OPERATION *VSCFUN 
  SXMINIMOFINAL = MIN  stressx(1,2+nana
 VECTOR LENGTH=      37
 RESULT= -2.1992    

 VECTOR PARAMETER OPERATION *VSCFUN 
  SYMAXIMOFINAL = MAX  stressy(1,2+nana
 VECTOR LENGTH=      37
 RESULT=  0.0000    

 VECTOR PARAMETER OPERATION *VSCFUN 
  SYMINIMOFINAL = MIN  stressy(1,2+nana
 VECTOR LENGTH=      37
 RESULT= -4.2765    

 RED=100% GREEN=100% BLUE=100%
  for color index  0.

 RED=0% GREEN=0% BLUE=0%
  for color index 15.

 X AXIS LABEL = y                               

 Y AXIS LABEL = Ux=-ux(r,theta=90)/Re (%)       
 CURVE X RANGE SET FROM DEFAULT VALUES
 ALL CURVE Y RANGES SET FROM DEFAULT VALUES

 NUMBER OF Y-AXIS DIVISIONS FOR GRAPHS =20

 NUMBER OF X-AXIS DIVISIONS FOR GRAPHS =10

 DIG1 GRAPH LABEL PRECISION =  3

 CURV GRAPH CURVE LINE THICKNESS =  0
 INFO LEGEND DISPLAY = ON  

 ERASE OPTION SET

 /SHOW SWITCH PLOTS TO  JPEG        - RASTER MODE.

 *DO LOOP ON PARAMETER= I FROM  1.0000     TO  1.0000     BY  1.0000    

 *IF  i                                 ( =   1.00000     )  EQ  
      nanalises                         ( =   1.00000     )  THEN    
 GRID CURVE COLOR    1 SET TO MAGENTA                          

 *ELSEIF  i                                 ( =   1.00000     )  EQ  
          nesc+nesc1-1                      ( =   97.0000     )  THEN    

 *ELSE

 *ENDIF

 GRAPHIC DISPLAY OF MATRIX= convergencex(1,2+i)
 VECTOR FOR X AXIS= convergencex(1,2
 NUMBER OF POINTS=    37  NUMBER OF CURVES=   1

 CUMULATIVE DISPLAY NUMBER   1 WRITTEN TO FILE file012.jpg       - RASTER MODE.
 DISPLAY TITLE= 
  Re=4 matmacico=1 E1=500 pr=%pr% matrev=0 E2=30303.3845 vp=12.5         

 NO ERASE OPTION SET

 *ENDDO  INDEX= I                               

 ERASE OPTION SET

 RED=100% GREEN=100% BLUE=100%
  for color index  0.

 RED=0% GREEN=0% BLUE=0%
  for color index 15.

 X AXIS LABEL = y                               

 Y AXIS LABEL = Uy=-uy(r,theta=90)/Re (%)       
 CURVE X RANGE SET FROM DEFAULT VALUES
 ALL CURVE Y RANGES SET FROM DEFAULT VALUES

 NUMBER OF Y-AXIS DIVISIONS FOR GRAPHS =20

 NUMBER OF X-AXIS DIVISIONS FOR GRAPHS =10

 DIG1 GRAPH LABEL PRECISION =  3

 CURV GRAPH CURVE LINE THICKNESS =  0
 INFO LEGEND DISPLAY = ON  

 ERASE OPTION SET

 /SHOW SWITCH PLOTS TO  JPEG        - RASTER MODE.

 *DO LOOP ON PARAMETER= I FROM  1.0000     TO  1.0000     BY  1.0000    

 *IF  i                                 ( =   1.00000     )  EQ  
      nanalises                         ( =   1.00000     )  THEN    
 GRID CURVE COLOR    1 SET TO MAGENTA                          

 *ELSEIF  i                                 ( =   1.00000     )  EQ  
          nesc+nesc1-1                      ( =   97.0000     )  THEN    

 *ELSE

 *ENDIF

 GRAPHIC DISPLAY OF MATRIX= convergencey(1,2+i)
 VECTOR FOR X AXIS= convergencey(1,2
 NUMBER OF POINTS=    37  NUMBER OF CURVES=   1

 CUMULATIVE DISPLAY NUMBER   1 WRITTEN TO FILE file013.jpg       - RASTER MODE.
 DISPLAY TITLE= 
  Re=4 matmacico=1 E1=500 pr=%pr% matrev=0 E2=30303.3845 vp=12.5         

 NO ERASE OPTION SET

 *ENDDO  INDEX= I                               

 ERASE OPTION SET

 RED=100% GREEN=100% BLUE=100%
  for color index  0.

 RED=0% GREEN=0% BLUE=0%
  for color index 15.

 X AXIS LABEL = y                               

 Y AXIS LABEL = Sx(r,theta=90)(MPa)             
 CURVE X RANGE SET FROM DEFAULT VALUES
 ALL CURVE Y RANGES SET FROM DEFAULT VALUES

 NUMBER OF Y-AXIS DIVISIONS FOR GRAPHS =20

 NUMBER OF X-AXIS DIVISIONS FOR GRAPHS =10

 DIG1 GRAPH LABEL PRECISION =  3

 CURV GRAPH CURVE LINE THICKNESS =  0
 INFO LEGEND DISPLAY = ON  

 ERASE OPTION SET

 /SHOW SWITCH PLOTS TO  JPEG        - RASTER MODE.

 *DO LOOP ON PARAMETER= I FROM  1.0000     TO  1.0000     BY  1.0000    

 *IF  i                                 ( =   1.00000     )  EQ  
      nanalises                         ( =   1.00000     )  THEN    
 GRID CURVE COLOR    1 SET TO MAGENTA                          

 *ELSEIF  i                                 ( =   1.00000     )  EQ  
          nesc+nesc1-1                      ( =   97.0000     )  THEN    

 *ELSE

 *ENDIF

 GRAPHIC DISPLAY OF MATRIX= stressx(1,2+i)
 VECTOR FOR X AXIS= stressx(1,2)    
 NUMBER OF POINTS=    37  NUMBER OF CURVES=   1

 CUMULATIVE DISPLAY NUMBER   1 WRITTEN TO FILE file014.jpg       - RASTER MODE.
 DISPLAY TITLE= 
  Re=4 matmacico=1 E1=500 pr=%pr% matrev=0 E2=30303.3845 vp=12.5         

 NO ERASE OPTION SET

 *ENDDO  INDEX= I                               

 ERASE OPTION SET

 RED=100% GREEN=100% BLUE=100%
  for color index  0.

 RED=0% GREEN=0% BLUE=0%
  for color index 15.

 X AXIS LABEL = y                               

 Y AXIS LABEL = Sy(r,theta=90)(MPa)             
 CURVE X RANGE SET FROM DEFAULT VALUES
 ALL CURVE Y RANGES SET FROM DEFAULT VALUES

 NUMBER OF Y-AXIS DIVISIONS FOR GRAPHS =20

 NUMBER OF X-AXIS DIVISIONS FOR GRAPHS =10

 DIG1 GRAPH LABEL PRECISION =  3

 CURV GRAPH CURVE LINE THICKNESS =  0
 INFO LEGEND DISPLAY = ON  

 ERASE OPTION SET

 /SHOW SWITCH PLOTS TO  JPEG        - RASTER MODE.

 *DO LOOP ON PARAMETER= I FROM  1.0000     TO  1.0000     BY  1.0000    

 *IF  i                                 ( =   1.00000     )  EQ  
      nanalises                         ( =   1.00000     )  THEN    
 GRID CURVE COLOR    1 SET TO MAGENTA                          

 *ELSEIF  i                                 ( =   1.00000     )  EQ  
          nesc+nesc1-1                      ( =   97.0000     )  THEN    

 *ELSE

 *ENDIF

 GRAPHIC DISPLAY OF MATRIX= stressy(1,2+i)
 VECTOR FOR X AXIS= stressy(1,2)    
 NUMBER OF POINTS=    37  NUMBER OF CURVES=   1

 CUMULATIVE DISPLAY NUMBER   1 WRITTEN TO FILE file015.jpg       - RASTER MODE.
 DISPLAY TITLE= 
  Re=4 matmacico=1 E1=500 pr=%pr% matrev=0 E2=30303.3845 vp=12.5         

 NO ERASE OPTION SET

 *ENDDO  INDEX= I                               

 ERASE OPTION SET

 START CREATE BY COPY FROM INPUT TO  ansuitmp

 END FILE CREATE

 /INPUT FILE= ansuitmp  LINE=       0

 MATRIX WRITE OPERATION  *MWRITE 
  convergencex WRITE TO FILE convergencex_zf_90.txt
 LOOP DIRECTIONS=JIK   COUNTS=       3      37       1       1       1
 FORMAT=(1000(E10.4,3X))                                                      

 START CREATE BY COPY FROM INPUT TO  ansuitmp

 END FILE CREATE

 /INPUT FILE= ansuitmp  LINE=       0

 MATRIX WRITE OPERATION  *MWRITE 
  convergencey WRITE TO FILE convergencey_zf_90.txt
 LOOP DIRECTIONS=JIK   COUNTS=       3      37       1       1       1
 FORMAT=(1000(E10.4,3X))                                                      

 START CREATE BY COPY FROM INPUT TO  ansuitmp

 END FILE CREATE

 /INPUT FILE= ansuitmp  LINE=       0

 MATRIX WRITE OPERATION  *MWRITE 
  stressx WRITE TO FILE stressx_zf_90.txt
 LOOP DIRECTIONS=JIK   COUNTS=       3      37       1       1       1
 FORMAT=(1000(E10.4,3X))                                                      

 START CREATE BY COPY FROM INPUT TO  ansuitmp

 END FILE CREATE

 /INPUT FILE= ansuitmp  LINE=       0

 MATRIX WRITE OPERATION  *MWRITE 
  stressy WRITE TO FILE stressy_zf_90.txt
 LOOP DIRECTIONS=JIK   COUNTS=       3      37       1       1       1
 FORMAT=(1000(E10.4,3X))                                                      

 *** NOTE ***                            CP =     276.422   TIME= 16:30:35
 Write parameters to file= parametros.txt.                               

 *** NOTE ***                            CP =     276.422   TIME= 16:30:35
 Parameters written.  Lines= 161.                                        

 ***** END OF INPUT ENCOUNTERED *****


 NUMBER OF WARNING MESSAGES ENCOUNTERED=         84
 NUMBER OF ERROR   MESSAGES ENCOUNTERED=          0



 ***** PROBLEM TERMINATED BY INDICATED ERROR(S) OR BY END OF INPUT DATA *****

+--------------------- A N S Y S   S T A T I S T I C S ------------------------+

Release: 2021 R1            Build: 21.1       Update: UP20201109   Platform: WINDOWS x64 
Date Run: 04/02/2024   Time: 16:30     Process ID: 8812
Operating System: Windows 10  (Build: 19045)

Processor Model: AMD Ryzen 9 3900X 12-Core Processor

Compiler: Intel(R) FORTRAN Compiler Version 19.0.0  (Build: 20190206)
          Intel(R) C/C++ Compiler Version 19.0.0  (Build: 20190206)
          Intel(R) Math Kernel Library Version 2020.0.0 Product Build 20191125

Number of machines requested            :    1
Total number of cores available         :   24
Number of physical cores available      :   12
Number of processes requested           :    1
Number of threads per process requested :    2
Total number of cores requested         :    2 (Shared Memory Parallel)                    

GPU Acceleration: Not Requested

Job Name: file
Input File: D:\GUO_ETAL\GUO_D1_10RE\Script_3D_DUPLO_2023.txt
Working Directory: D:\GUO_ETAL

Total CPU time for main thread                    :      154.6 seconds
Total CPU time summed for all threads             :      276.4 seconds

Elapsed time spent obtaining a license            :        1.7 seconds
Elapsed time spent pre-processing model (/PREP7)  :       13.0 seconds
Elapsed time spent solution - preprocessing       :        1.3 seconds
Elapsed time spent computing solution             :      128.0 seconds
Elapsed time spent solution - postprocessing      :        0.0 seconds
Elapsed time spent post-processing model (/POST1) :        0.0 seconds
 
Equation solver used                              :            Sparse (symmetric)
Equation solver computational rate                :       71.4 Gflops
Equation solver effective I/O rate                :       23.1 GB/sec

Maximum total memory used                         :     8839.0 MB
Maximum total memory allocated                    :    10362.0 MB
Total physical memory available                   :         32 GB

Total amount of I/O written to disk               :        3.4 GB
Total amount of I/O read from disk                :        2.7 GB

+------------------ E N D   A N S Y S   S T A T I S T I C S -------------------+


 *---------------------------------------------------------------------------*
 |                                                                           |
 |                            ANSYS RUN COMPLETED                            |
 |                                                                           |
 |---------------------------------------------------------------------------|
 |                                                                           |
 | Ansys 2021 R1               Build 21.1         UP20201109     WINDOWS x64 |
 |                                                                           |
 |---------------------------------------------------------------------------|
 |                                                                           |
 | Database Requested(-db)  1024 MB    Scratch Memory Requested      1024 MB |
 | Maximum Database Used     890 MB    Maximum Scratch Memory Used   7949 MB |
 |                                                                           |
 |---------------------------------------------------------------------------|
 |                                                                           |
 |        CP Time      (sec) =        276.438       Time  =  16:30:35        |
 |        Elapsed Time (sec) =        159.000       Date  =  04/02/2024      |
 |                                                                           |
 *---------------------------------------------------------------------------*
