
 ANSYS Mechanical Enterprise                       


 *------------------------------------------------------------------*
 |                                                                  |
 |   W E L C O M E   T O   T H E   A N S Y S (R)  P R O G R A M     |
 |                                                                  |
 *------------------------------------------------------------------*




 ***************************************************************
 *            ANSYS 2021 R1          LEGAL NOTICES             *
 ***************************************************************
 *                                                             *
 * Copyright 1971-2021 ANSYS, Inc.  All rights reserved.       *
 * Unauthorized use, distribution or duplication is            *
 * prohibited.                                                 *
 *                                                             *
 * Ansys is a registered trademark of ANSYS, Inc. or its       *
 * subsidiaries in the United States or other countries.       *
 * See the ANSYS, Inc. online documentation or the ANSYS, Inc. *
 * documentation CD or online help for the complete Legal      *
 * Notice.                                                     *
 *                                                             *
 ***************************************************************
 *                                                             *
 * THIS ANSYS SOFTWARE PRODUCT AND PROGRAM DOCUMENTATION       *
 * INCLUDE TRADE SECRETS AND CONFIDENTIAL AND PROPRIETARY      *
 * PRODUCTS OF ANSYS, INC., ITS SUBSIDIARIES, OR LICENSORS.    *
 * The software products and documentation are furnished by    *
 * ANSYS, Inc. or its subsidiaries under a software license    *
 * agreement that contains provisions concerning               *
 * non-disclosure, copying, length and nature of use,          *
 * compliance with exporting laws, warranties, disclaimers,    *
 * limitations of liability, and remedies, and other           *
 * provisions.  The software products and documentation may be *
 * used, disclosed, transferred, or copied only in accordance  *
 * with the terms and conditions of that software license      *
 * agreement.                                                  *
 *                                                             *
 * ANSYS, Inc. is a UL registered                              *
 * ISO 9001:2015 company.                                      *
 *                                                             *
 ***************************************************************
 *                                                             *
 * This product is subject to U.S. laws governing export and   *
 * re-export.                                                  *
 *                                                             *
 * For U.S. Government users, except as specifically granted   *
 * by the ANSYS, Inc. software license agreement, the use,     *
 * duplication, or disclosure by the United States Government  *
 * is subject to restrictions stated in the ANSYS, Inc.        *
 * software license agreement and FAR 12.212 (for non-DOD      *
 * licenses).                                                  *
 *                                                             *
 ***************************************************************

 2021 R1 
     
 Point Releases and Patches installed:   
     
 ANSYS, Inc. Products 2021 R1
 SpaceClaim 2021 R1  
 Discovery 2021 R1   
 ANSYS Sherlock 2021 R1  
 Autodyn 2021 R1 
 LS-DYNA 2021 R1 
 CFX (includes CFD-Post) 2021 R1 
 Chemkin 2021 R1 
 EnSight 2021 R1 
 FENSAP-ICE 2021 R1  
 Fluent (includes CFD-Post) 2021 R1  
 Forte (includes EnSight) 2021 R1
 Polyflow (includes CFD-Post) 2021 R1
 TurboGrid 2021 R1   
 ICEM CFD 2021 R1
 Aqwa 2021 R1
 SPEOS 2021 R1   
 Customization Files for User Programmable Features 2021 R1  
 Mechanical Products 2021 R1 
 Additive 2021 R1
 Icepak (includes CFD-Post) 2021 R1  
 ACIS Geometry Interface 2021 R1 
 AutoCAD Geometry Interface 2021 R1  
 Catia, Version 4 Geometry Interface 2021 R1 
 Catia, Version 5 Geometry Interface 2021 R1 
 Catia, Version 6 Geometry Interface 2021 R1 
 Creo Elements/Direct Modeling Geometry Interface 2021 R1
 Creo Parametric Geometry Interface 2021 R1  
 Inventor Geometry Interface 2021 R1 
 JTOpen Geometry Interface 2021 R1   
 NX Geometry Interface 2021 R1   
 Parasolid Geometry Interface  2021 R1   
 Solid Edge Geometry Interface 2021 R1   
 SOLIDWORKS Geometry Interface 2021 R1   
 ANSYS, Inc. License Manager 2021 R1 


          *****  ANSYS COMMAND LINE ARGUMENTS  *****
  INITIAL JOBNAME              = file                                                                                                                                                                                                                                                    
  BATCH MODE REQUESTED (-b)    = LIST
  INPUT FILE COPY MODE (-c)    = COPY
  SHARED MEMORY PARALLEL REQUESTED
    SINGLE PROCESS WITH  12 THREADS REQUESTED
    TOTAL OF    12 CORES REQUESTED
  INPUT FILE NAME              = D:\GUO_ETAL\MA\MA3_MC\Script_3D_DUPLO_2023.txt
  OUTPUT FILE NAME             = D:\GUO_ETAL\MA\MA3_MC\file.out
  START-UP FILE MODE           = READ  
  STOP FILE MODE               = READ  
  LANGUAGE                     = en-us               
  INITIAL DIRECTORY = D:\GUO_ETAL\MA\MA3_MC

 User Link path (ANS_USER_PATH): C:\usermat                                                                                                                                                                                                                                              

 RELEASE= 2021 R1              BUILD= 21.1      UP20201109   VERSION=WINDOWS x64 
 CURRENT JOBNAME=file  12:11:42  APR 17, 2024 CP=      0.438
 Note - This ANSYS version was linked by Licensee
     1  !************************************************************!  
     2  !** PROGRAMA ANÁLISE TUNEL DUPLO (MODELO 3D) 		   **!  
     3  !** Versão: 2023.17 					   **!
     4  !** 							   **!   
     5  !** Objetivo: faz análise da convergência de túneis 	   **!  
     6  !** profundos com seção circular dupla (gêmeos)		   **!  
     7  !** com/sem galerias transversais			   **!  
     8  !** considerando um modelo 3D 				   **!
     9  !** 							   **!   
    10  !** Programador: Felipe Quevedo e Carlos Alberto	   **! 
    11  !** Situação : OK (11/07/2020) 				   **! 
    12  !** Unidades : [F/A, L, t] = MPa, m, dias		   **!   
    13  !** 							   **!   
    14  !************************************************************!  
    15  !   
    16  !************************************************************!  
    17  !****_ 1. INICIALIZANDO O ANSYS 		        _****!
    18  !************************************************************!  
    19  FINISH  
    20  /CLEAR,NOSTART  
    21  !   
    22  !************************************************************!  
    23  !****_ 2. DADOS DE ENTRADA DO PROBLEMA 			_****!
    24  !************************************************************!  
    25  !   
    26  ! Nessa seção define-se todos os dados de entrada necessarios 
    27  !   
    28  !************************************************************!  
    29  !****_ 		2.1 Parâmetros geométricos		_****!   
    30  !************************************************************!  
    31  ! referente aos tuneis longitudinais
    32  Re 		= 1 		! [m] raio da interface entre o túnel e o maciço   
    33  esp		= 0.1		! [m] espessura do revestimento 
    34  Lp 		= 1/3*Re 	! [m] comprimento do passo de escavação
    35  nd0 		= 2 		! [Lp] número de passos que representam a dimensão não suportada 
    36  npi 		= 3 		! [Lp] número de passos escavados na primeira escavação  
    37  Vp 		= 5 		! [m/dia] velocidade do passo de escavação 
    38  revested0 	= 0 		! 0 - não reveste ultimo d0+Lp, 1 - reveste ultimo d0+Lp  
    39  revesteface 	= 0 		! 0 - não reveste a face, 1 - reveste a face
    40  !   
    41  ! referente as galeiras transversais
    42  Re1 		= 2*Lp 		! [m] raio externo da galeria (deve multiplo de Lp)  
    43  esp1		= 0.1		! [m] espessura do revestimento
    44  !Lp1 		= 1/3*re1 	! [m] passo de escavação das galerias transversais (tem que ser multiplo de (d1/2+re))  
    45  nd01 		= 2 		! [Lp1] dimensão não suportada (deve ser multiplo de Lp1)
    46  npi1 		= 3 		! [un] numero de passos escavados na primeira escavação  
    47  Vp1 		= 1 		! [m/dia] velocidade de escavação 
    48  escavagaleria 	= 0 		! escavação das galerias: 0 - não escava, 1 - escava
    49  revestegaleria 	= 0 		! revestimento da galeria: 0 - não reveste, 1 - reveste  
    50  pig1 		= 15 		! [un] numero de passos de escavação a partir da galeria no qual iniciará a escavação da galeria 
    51  !   
    52  ! referente ao restante do domínio 
    53  l1 		= 10 		! [Re] comprimento do trecho não escavado (deve ser suficiente para captar os efeitos na última frente de escavação)
    54  l2 		= 100 		! [Lp] comprimento do trecho escavado  
    55  d3 		= 20 		! [Re] altura do domínio (profundidade do eixo do túnel longitudinal) 
    56  d4 		= 20 		! [Re] distância das bordas laterais do domínio até o eixo do tunel longitudinal 
    57  d1 		= 5		! [Re] distância entre eixos dos túneis longitudinais (d1 = 16*Re ou d1 = 4*Re) 
    58  !   
    59  ! distância adjacente a galeria com malha livre [Lp]   
    60  !   
    61  ! Lp1 deve ter uma medida que se tenha n passos inteiros para se escavar,   
    62  ! portanto: Lp1 = K*Re1 em que K = (d1/2-Re)/(n*Re1).   
    63  ! o valor de d5 é ajustado de modo a ter uma discretização na região da galeria 
    64  !   
    65  !   
    66  *IF,d1,EQ,3,THEN
    67  	d5		= 2
    68  	Lp1		= 0.25*re1
    69  *ELSEIF,d1,EQ,4,THEN
    70  	d5		= 2
    71  	Lp1		= 0.3*re1 
    72  *ELSEIF,d1,EQ,5,THEN
    73  	d5		= 2
    74  	Lp1		= 0.375*re1   
    75  *ELSEIF,d1,EQ,6,THEN
    76  	d5		= 3
    77  	Lp1		= 0.5*re1 
    78  *ELSEIF,d1,EQ,8,THEN
    79  	d5		= 4
    80  	Lp1		= 0.3214*re1	 
    81  *ELSEIF,d1,EQ,10,THEN   
    82  	d5		= 4
    83  	Lp1		= 0.5*re1 
    84  *ELSEIF,d1,EQ,16,THEN   
    85  	d5		= 6			 
    86  	Lp1		= 0.3387*re1  
    87  *ENDIF  
    88  !   
    89  !   
    90  !************************************************************!  
    91  !****_  	2.2 Parâmetros constitutivos do maciço 	_****!   
    92  !************************************************************! 		   
    93  ! Tipo de material do maciço (matmacico)   
    94  !   
    95  ! 	1  - elastico do ANSYS   
    96  ! 	2  - elastoplastico VM do ANSYS (BISO)   
    97  ! 	22 - elastoplastico VM do ANSYS (MISO)   
    98  !	23 - viscoplastico Perzyna VM do ANSYS
    99  !	3  - elastoplastico MC do ANSYS   
   100  !	4  - usermat3D_VM do ANSYS (BISO) 
   101  !	5  - usermat3D_elastico   
   102  !	6  - usermat3D_EP 
   103  !	7  - usermat3D_VP 
   104  !	8  - usermat3D_EPVP	  
   105  !   
   106  matmacico	= 3   
   107  !   
   108  ! Parâmetros de todos os modelos   
   109  E1 		= 20000		 ! [MPa] modulo elasticidade (1,2,22,23,4,5,6,7,8)
   110  nu1 		= 0.3		 ! [adm] coeficiente de poisson (1,2,22,23,4,5,6,7,8)  
   111  !   
   112  ! Parametros para o modelo 2, 22, 6 e 8 
   113  superficief	= 2		 ! função de escoamento: 1-DPI, 2-DPII, 3-DPIII (6,8)
   114  superficieg 	= 2		 ! função potencial: 1-DPI, 2-DPII, 3-DPIII (6,8)   
   115  fi	    	= 30		 ! [graus] angulo de atrito (0 - VM ou TR) (6,8)  
   116  psi	    	= fi		 ! [graus] angulo de dilatância (6,8)   
   117  c1	    	= 5 !*SQRT(3)/2 ! [MPa] coesão inicial (2,22,23,4,6,8) 
   118  c2	    	= 5 !*SQRT(3)/2 ! [MPa] coesão de pico (2,22,23,4,6,8) 
   119  c3	    	= 5 !*SQRT(3)/2 ! [MPa] coesão residual (22,6,8)   
   120  eps1	    	= 0.010		 ! [adm] deformação equiv. limite da zona 1 (22,6,8)   
   121  eps2	    	= 0.010		 ! [adm] deformação equiv. limite da zona 2 (22,6,8)   
   122  eps3	    	= 0.010		 ! [adm] deformação equiv. limite da zona 3 (22,6,8)   
   123  Dalg		= 0		 ! 0 - módulo elastico, 1 - módulo algoritmíco (6,8)  
   124  !   
   125  ! Parametros para o modelo 23, 7 e 8
   126  superficiefvp 	= 2		 ! função de escoamento: 1-DPI, 2-DPII, 3-DPIII (7,8) 
   127  superficiegvp 	= 2		 ! função potencial: 1-DPI, 2-DPII, 3-DPIII (7,8) 
   128  fivp          	= 0		 ! [graus] angulo de atrito (0 - VM ou TR)(7,8) 
   129  psivp         	= fivp		 ! [graus] angulo de dilatância (7,8)   
   130  cvp 	      	= 2*SQRT(3)/2	 ! [MPa] coesão viscoplastica (23,7,8)   
   131  n1	      	= 1		 ! [adm] expoente do modelo de Perzyna (23,7,8)  
   132  eta           	= 4E4 ! [dia] constante de viscosidade dinâmica (23,7,8)
   133  f0     	      	= 1		 ! [MPa] valor de referência (23,7,8)  
   134  thetavp       	= 1		 ! 0 - totalmente explícito, 1 - semi-implicito (7,8)  
   135  !   
   136  !********************************************************************!  
   137  !****_ 		2.3 Parâmetros constitutivos do revest	_****! 
   138  !********************************************************************!  
   139  ! Tipo de material  
   140  !	0 - Sem revestimento  
   141  !	1 - Ansys_Elástico   
   142  !	2 - Usermat_Viscoelastico_CEB-MC90
   143  !   
   144  matrev 		= 0		! Tipo de material (0-SR,1-E,2-VE)
   145  !   
   146  ! Parâmetros para os modelos 1 e 2 
   147  E2 		= 30000		! [MPa] módulo de elasticidade do revestimento (matrev=1)
   148  nu2 		= 0.2    	! [adm] coeficiente de Poisson do revestimento (matrev=1,2)		   
   149  !   
   150  ! Parâmetros para o modelo 2   
   151  fck 		= 20		! [MPa] resistência característica do concreto (2)
   152  s 		= 0.2		! [adm] coef. que depende do tipo de concreto (2)
   153  ti 		= 0		! [dias] início do concreto (2)  
   154  rh 		= 70		! [%] umidade relativa do ambiente (2)   
   155  hf 		= (Re**2-(Re-esp)**2)/(Re-esp) ! [m] espessura fictítica (QUEVEDO, 2017, p. 84) (2)   
   156  hf1		= (Re1**2-(Re1-esp1)**2)/(Re1-esp1)  ! [m] espessura fictítica da galeria (QUEVEDO, 2017, p. 84) (2)  
   157  ts 		= 7		! [dias] idade do concreto no início da secagem (2)  
   158  t0		= 1		! [dias] idade do concreto no início do carregamento (2)  
   159  tinf		= 3000		! [dias] tempo final da análise (2)  
   160  betasc 		= 8d0		! [adm] coeficiente que depende do tipo de cimento (2)  
   161  temperatura 	= 20		! [oC] temperatura (2)   
   162  alpha 		= 1		! [adm] efeito do tipo de cimento durante a cura (2)   
   163  ndec  		= 10		! [década] No. de pontos por decada na discretização (2)   
   164  ligafluencia 	= 1		! [un] 1 - liga fluência, 0 - desliga fluência (2) 
   165  ligaretracao 	= 1		! [un] 1 - liga retração, 0 - desliga retração (2)   
   166  ktime		= 10		! [dias] tempo da análise para saída de dados
   167  kelemid		= 2060		! [un] identificação do elemento para saída 
   168  kkDomIntPt	= 1		! [un] identificação do ponto de integração para saída 
   169  !   
   170  ! Calculo do módulo
   171  fcm 		= fck + 8 
   172  E2 		= 21500*(fcm/10)**(1/3)		    					 
   173  !************************************************************!  
   174  !****_ 		2.4 Condições de Contorno	  	_****!  
   175  !************************************************************!  
   176  prx 		= 40 		! [MPa] tensões iniciais na direção x   
   177  pry		= 30		! [MPa] tensões iniciais na direção y 
   178  prz		= (prx+pry)/2	! nu1*(prx+pry)	! [MPa] tensões iniciais na direção z 
   179  !   
   180  !************************************************************!  
   181  !****_ 		2.5 Discretização do tempo nos passos	_****! 
   182  !************************************************************!  
   183  !   
   184  ! Discretização do tempo durante os passos de escavação tunel longitudinal  
   185  tp 		= Lp/(Vp) 	! [dias] tempo para fazer um passo de escavação nos tuneis longitudinais  
   186  dtp 		= 0.5*tp	! [dias] incremento de tempo inicial dentro de cada passo
   187  dtpmax 		= dtp 		! [dias] incremento máximo de tempo dentro de cada passo  
   188  !   
   189  ! Discretização do tempo durante os passos de escavação da galeria  
   190  tp1 		= Lp1/(Vp1) 	! [dias] tempo para fazer um passo de escavação na galeria transversal 
   191  dtp1		= 0.5*tp1	! [dias] incremento de tempo inicial dentro de cada passo   
   192  dtpmax1		= dtp1		! [dias] incremento máximo de tempo dentro de cada passo  
   193  !   
   194  ! Discretização do tempo nos passos após a escavação   
   195  tp2 		= 100 		! [dias] tempo de cada passo de solução após a escavação do túnel   
   196  np2max 		= 30 		! [un] número máximo de passos de solução após a escavação do túnel 
   197  dtp2		= 0.5*tp2	! [dias] incremento de tempo de cada passo  
   198  !   
   199  tp2autots	= 1		! Especifica quando usar incremento de tempo automático 
   200  !				!      -1 - O programa escolhe 
   201  !				! 	0 - não usa incremento de tempo automático (usa apenas dtp2)  
   202  !				!	1 - usa incremento de tempo automático (usa o dpt2min e dpt2max)
   203  tp2carry	= 1		! Incremento de tempo entre passos
   204  !				!	0 - usa o dtp2 como o incremento de tempo em cada passo  
   205  !				!	1 - usa o incremento de tempo do passo anterior em cada passo (se dtp2autots = 1)
   206  dtp2min		= tp2/2		! [dias] incremento mínimo de tempo de cada passo
   207  dtp2max		= tp2		! [dias] incremento máximo de tempo de cada passo				! 
   208  !   
   209  deltaumin	= 1E-8		! [adm] critério de convergência no tempo   
   210  !   
   211  !************************************************************!  
   212  !****_ 		2.6 Discretização da malha              _****!   
   213  !************************************************************!  
   214  tipoelem 	= 1 		! elementos fora da região da galeria: 1 - SOLID185, 2 - SOLID186  
   215  formaint	= 0		! integração 0 - completa, 1 - reduzida 
   216  tipoelem1 	= 2 		! elementos na região da galeria: 1 - SOLID185, 2 - SOLID186  
   217  formaint1	= 0		! integração 0 - completa, 1 - reduzida
   218  !   
   219  nLp		= 1		! [un] numero de elementos no passo escavado do túnel longitudinal   
   220  nLp1		= 2 		! [un] numero de elementos no passo escavado da galeria 
   221  nL1 		= 15 		! [un] numero de elementos ao longo do eixo do tunel longitudinal no trecho não escavado  
   222  mL1 		= 1/5 		! [adm] taxa de crescimento   
   223  nesp 		= 2 		! [un] numero de elementos na espessura do revestimento do tunel longitudinal  
   224  nCRe 		= 16 		! [un] numero de elementos na interface entre maciço e o revestimento do tunel longitudinal (deve ser par)   
   225  nRi 		= nCRe/2 	! [un] numero de elementos na horizontal e vertical do maciço escavado no tunel longitudinal   
   226  mRi 		= 0 		! [adm] taxa de crecimento  
   227  nd3 		= nCRe/2 	! [un] numero de elementos na horizontal e vertical oposta ao tunel longitudinal
   228  m4ga		= Lp1/1.5 	! [m] tamanho dos elementos na galeria 
   229  !   
   230  *IF,d1,EQ,3,THEN
   231  	nd1 		= 5		! [un] numero de elementos na horizontal e vertical contigua ao tunel longitudinal  
   232  	md1 		= 5 		! [adm] taxa de crescimento		  
   233  	nd4 		= 15 		! [un] numero de elementos na horizontal e vertical contigua a região próxima do tunel longitudinal 
   234  	md4 		= 8 		! [adm] taxa de crescimento
   235  	nd6		= nd1*2		! [un] número de elementos na vertical contígua a galeria transversal  
   236  	md6		= md1		! [adm] taxa de crescimento
   237  	nd5		= 6		! [un] numero de elementos no trecho adjacente a galeria transversal 
   238  	md5		= 4		! [adm] taxa de crescimento  
   239  *ELSEIF,d1,EQ,4,THEN
   240  	nd1 		= 7		! [un] numero de elementos na horizontal e vertical contigua ao tunel longitudinal  
   241  	md1 		= 5 		! [adm] taxa de crescimento		  
   242  	nd4 		= 12 		! [un] numero de elementos na horizontal e vertical contigua a região próxima do tunel longitudinal 
   243  	md4 		= 6 		! [adm] taxa de crescimento
   244  	nd6		= nd1*2		! [un] número de elementos na vertical contígua a galeria transversal  
   245  	md6		= md1		! [adm] taxa de crescimento
   246  	nd5		= 6		! [un] numero de elementos no trecho adjacente a galeria transversal 
   247  	md5		= 4		! [adm] taxa de crescimento  
   248  *ELSEIF,d1,EQ,5,THEN
   249  	nd1 		= 9		! [un] numero de elementos na horizontal e vertical contigua ao tunel longitudinal  
   250  	md1 		= 7 		! [adm] taxa de crescimento		  
   251  	nd4 		= 12 		! [un] numero de elementos na horizontal e vertical contigua a região próxima do tunel longitudinal 
   252  	md4 		= 6 		! [adm] taxa de crescimento
   253  	nd6		= nd1*2		! [un] número de elementos na vertical contígua a galeria transversal  
   254  	md6		= md1		! [adm] taxa de crescimento
   255  	nd5		= 6		! [un] numero de elementos no trecho adjacente a galeria transversal 
   256  	md5		= 4		! [adm] taxa de crescimento  
   257  *ELSEIF,d1,EQ,6,THEN
   258  	nd1 		= 9		! [un] numero de elementos na horizontal e vertical contigua ao tunel longitudinal  
   259  	md1 		= 7 		! [adm] taxa de crescimento		  
   260  	nd4 		= 12 		! [un] numero de elementos na horizontal e vertical contigua a região próxima do tunel longitudinal 
   261  	md4 		= 6 		! [adm] taxa de crescimento
   262  	nd6		= nd1*2		! [un] número de elementos na vertical contígua a galeria transversal  
   263  	md6		= md1		! [adm] taxa de crescimento
   264  	nd5		= 6		! [un] numero de elementos no trecho adjacente a galeria transversal 
   265  	md5		= 4		! [adm] taxa de crescimento  
   266  *ELSEIF,d1,EQ,8,THEN
   267  	nd1 		= 14		! [un] numero de elementos na horizontal e vertical contigua ao tunel longitudinal 
   268  	md1 		= 10 		! [adm] taxa de crescimento		 
   269  	nd4 		= 12 		! [un] numero de elementos na horizontal e vertical contigua a região próxima do tunel longitudinal 
   270  	md4 		= 6 		! [adm] taxa de crescimento
   271  	nd6		= nd1*2		! [un] número de elementos na vertical contígua a galeria transversal  
   272  	md6		= md1		! [adm] taxa de crescimento
   273  	nd5		= 8		! [un] numero de elementos no trecho adjacente a galeria transversal 
   274  	md5		= 6		! [adm] taxa de crescimento  
   275  *ELSEIF,d1,EQ,10,THEN   
   276  	nd1 		= 14		! [un] numero de elementos na horizontal e vertical contigua ao tunel longitudinal 
   277  	md1 		= 10 		! [adm] taxa de crescimento		 
   278  	nd4 		= 12 		! [un] numero de elementos na horizontal e vertical contigua a região próxima do tunel longitudinal 
   279  	md4 		= 6 		! [adm] taxa de crescimento
   280  	nd6		= nd1*2		! [un] número de elementos na vertical contígua a galeria transversal  
   281  	md6		= md1		! [adm] taxa de crescimento
   282  	nd5		= 8		! [un] numero de elementos no trecho adjacente a galeria transversal 
   283  	md5		= 6		! [adm] taxa de crescimento	 
   284  *ELSEIF,d1,EQ,16,THEN   
   285  	nd1 		= 18		! 16 [un] numero de elementos na horizontal e vertical contigua ao tunel longitudinal (exemplo: 6, 8, 12)  
   286  	md1 		= 20 		! 16 [adm] taxa de crescimento (exmeplo: 5, 8, 10)		  
   287  	nd4 		= 5 		! [un] numero de elementos na horizontal e vertical contigua a região próxima do tunel longitudinal  
   288  	md4 		= 1.5 		! [adm] taxa de crescimento  
   289  	nd6		= nd1*2		! [un] número de elementos na vertical contígua a galeria transversal  
   290  	md6		= md1		! [adm] taxa de crescimento
   291  	nd5		= 12		! 8 [un] numero de elementos no trecho adjacente a galeria transversal (exemplo: 6, 8)  
   292  	md5		= 4		! 3 [adm] taxa de crescimento (exemplo: 2, 6)
   293  *ENDIF	 
   294  !   
   295  !************************************************************!  
   296  !****_ 		2.7 Configuração da saida de dados    	_****!
   297  !************************************************************!  
   298  teta		= 90		! angulo da posição do perfil de convergências no túnel longitudinal
   299  direcao 	= 'Y'		! componente dos deslocamentos para o perfil de convergências										    						  
   300  iso		= 0 		! 0 - contorno padrão, 1 - isolinhas (apenas 0 se isosup=1) 
   301  flag1 		= 1 		! 1 - saida jpg do gráfico de convergência em arquivo   
   302  flag2 		= 1 		! 1 - saida txt de resultados do gráfico de convergênci 
   303  flag3 		= 1 		! 1 - saida do gráfico de convergência na tela do Ansys 
   304  !   
   305  ! Obs: os arquivos de imagem jpg saem com o nome jobname###.jpg 
   306  ! onde ### é um inteiro que vai incrementando a partir da última  
   307  ! numeração do último arquivo plotado.   
   308  ! Os campos de resultados serão referentes ao final da análise.   
   309  !   
   310  !***********************************************************!   
   311  !****_ 		2.8 Configurações da solução	     	_****!  
   312  !***********************************************************!   
   313  !   
   314  nr	= 2	! Tipo de Newton-Raphson 
   315  !		! 1 - INIT rigidez não é atualizada
   316  !		! 2 - FULL rigidez atualizada a cada iteração  
   317  !		! 3 - UNSYM assimétrica atualizada a cada iteração
   318  !   
   319  ! Tolerâncias durante os passos de escavação do túnel longitudinal  
   320  tolf	= 1e-6	! tolerância para o resíduo (padrão 0.005)   
   321  tolu	= 1e-4	! tolerância para o incremento de deslocamento (padrão 0.05)  
   322  !   
   323  ! Tolerâncias durante os passos de escavação da galeria transversal  
   324  tolf1	= 1e-6	! tolerância para o resíduo  
   325  tolu1	= 1e-4	! tolerância para o incremento de deslocamento
   326  !   
   327  ! Tolerâncias durante os passos após a construção do túnel 
   328  tolf2	= 1e-6	! tolerância para o resíduo  
   329  tolu2	= 1e-4	! tolerância para o incremento de deslocamento
   330  !   
   331  ! Tolerância para o incremento de deformação plástica equivalente   
   332  plslimit = 0.99 
   333  !   
   334  psc	= 1	! 1 - Ativa, 0 - desativa a opção de paralelização SMP  
   335  nlg	= 0	! 1 - Ativa, 0 - desativa a não lineariedade geométrica   
   336  soleq	= 1	! 1 - calcula o equilibrio do maciço antes de iniciar
   337  !   
   338  !   
   339  !************************************************************!  
   340  !****_ 		2.9 Titulo e nome dos arquivos  	_****!
   341  !************************************************************!  
   342  ! defini titulo na tela do Ansys
   343  /TITLE, Re=%Re% matmacico=%matmacico% E1=%E1% pr=%pr% matrev=%matrev% E2=%E2% vp=%vp%   
   344  !   
   345  ! define nome file.* para os arquivos da analise
   346  /FILNAME,file,0 
   347  !   
   348  !   
   349  !   
   350  !   
   351  !------------------FIM ENTRADA DE DADOS---------------------!   
   352  !   
   353  !   
   354  !   
   355  !   
   356  !************************************************************!  
   357  !****_ 3. PRÉ-PROCESSAMENTO 				_****! 
   358  !************************************************************!  
   359  /PREP7 ! inicia módulo de pré-processamento   
   360  !   
   361  !************************************************************!  
   362  !****_ 		3.1 Calculos iniciais			_****! 
   363  !************************************************************!  
   364  ri 		= re-esp		! [m] raio da face interna do revestimento dos tuneis longitudinais  
   365  l1		= l1*Re    		! [m] comprimento do trecho não escavado  
   366  l2		= l2*Lp			! [m] comprimento do trecho escavado  
   367  lt 		= l1+l2 		! [m] comprimento total do modelo ao longo do eixo longitudinal  
   368  d1 		= d1*Re			! [m] distância entre eixos dos túneis longitudinais (d1 = 16*Re ou d1 = 4*Re) 
   369  d4 		= d4*re 		! [m] distância das bordas laterais do domínio até o eixo do tunel longitudinal   
   370  l3 		= (d1/2+d4)*2 		! [m] dimensão transversal do modelo  
   371  d3		= d3*Re			! [m] altura do domínio (profundidade do eixo do túnel longitudinal)
   372  d5		= d5*Lp			! [m] distância adjacente a galeria com malha livre (exemplo: 1, 2, 4, 6)
   373  np	 	= l2/Lp 		! [un] numero total passos escavados nos tuneis longitudinais
   374  nesc 		= np-npi+1 		! [un] total de escavações ao longo do eixo do tunel longitudinal 
   375  d0		= nd0*lp		! [m] dimensão não suportada (multiplo do passo)
   376  !   
   377  ri1 		= re1-esp1 		! [m] raio da face interna do revestimento das galerias transversais 
   378  d2 		= l2/2 			! [m] posição da galeria ao longo do eixo longitudinal 
   379  d01		= nd01*Lp1		! [m] [m] dimensão não suportada da galeria (multiplo do passo)  
   380  np1 		= (d1/2-re)/Lp1 	! [un] total de passos escavados nas galerias transversais   
   381  nesc1 		= NINT(np1-npi1+1) 		! [un] total de escavações ao longo do eixo das galerias transversais
   382  !pig1 		= pig1+l2/(2*Lp)	! [un] numero de passos de escavação no túnel longitudinal no qual iniciará a escavação da galeria 1 
   383  !   
   384  nescinig		= np/2-npi+1+re1/Lp+pig1	! [un] numero da escavação em que se inicia a galeria  
   385  !   
   386  m1		= Lp/nLp 		! [m] tamanho do elemento ao longo do eixo do tunel longitudinal no trecho escavado  
   387  m9 		= m1 			! [m] tamanho dos elementos na região do tunel oposta a galeria   
   388  !   
   389  vpi = 3.14159265358979323846
   390  !   
   391  ! caso não haja escavação na galeria 
   392  *IF,escavagaleria,EQ,0,THEN 
   393  	nesc1 = 0  
   394  *ENDIF  
   395  !   
   396  ! verificando se haverá análise após a construção do túnel
   397  analise2 = 0
   398  *IF,matmacico,GT,6,OR,matrev,GT,1,THEN  
   399  	analise2 = 1   
   400  *ENDIF  
   401  *IF,matmacico,EQ,23,THEN
   402  	analise2 = 1   
   403  *ENDIF  
   404  !   
   405  !************************************************************!  
   406  !****_ 		3.2 Elementos finitos 			_****!
   407  !************************************************************!  
   408  *IF,tipoelem,EQ,1,THEN  
   409  	ET,1,SOLID185  
   410  	KEYOPT,1,2,formaint
   411  	KEYOPT,1,3,0   
   412  	KEYOPT,1,6,0   
   413  	KEYOPT,1,8,0   
   414  *ELSEIF,tipoelem,EQ,2,THEN  
   415  	ET,1,SOLID186  
   416  	KEYOPT,1,2,formaint
   417  	KEYOPT,1,3,0   
   418  	KEYOPT,1,6,0   
   419  	KEYOPT,1,8,0   
   420  *ENDIF  
   421  !   
   422  *IF,tipoelem1,EQ,1,THEN 
   423  	ET,2,SOLID185  
   424  	KEYOPT,2,2,formaint1   
   425  	KEYOPT,2,3,0   
   426  	KEYOPT,2,6,0   
   427  	KEYOPT,2,8,0   
   428  *ELSEIF,tipoelem1,EQ,2,THEN 
   429  	ET,2,SOLID186  
   430  	KEYOPT,2,2,formaint1   
   431  	KEYOPT,2,3,0   
   432  	KEYOPT,2,6,0   
   433  	KEYOPT,2,8,0   
   434  *ENDIF  
   435  !   
   436  !************************************************************!  
   437  !****_ 		3.3 Material do maciço 			_****!  
   438  !************************************************************!  
   439  *IF,matmacico,eq,1,then 
   440  	! Definindo o material elastico do Ansys   
   441  	MPTEMP,1,0  		 
   442  	MPDATA,EX,1,,E1	   
   443  	MPDATA,PRXY,1,,nu1 	   
   444  *ELSEIF,matmacico,eq,2,then 
   445  	! Definindo o material elastoplástico VM do Ansys bilienar
   446  	yield	    	= 2*c1			! [MPa]	tensão de escoamento  
   447  	Ep 		= 2*(c2-c1)/(eps1)	! [MPa] módulo plástico tangente 
   448  	youngt      	= Ep*E1/(E1+Ep)		! [MPa] módulo de elastoplástico tangente  
   449  	!  
   450  	MPTEMP,1,0  		 
   451  	MPDATA,EX,1,,E1	   
   452  	MPDATA,PRXY,1,,nu1 	   
   453  	TB,BISO,1,1,2, 
   454  	TBTEMP,0   
   455  	TBDATA,,yield,youngt,,,,   
   456  *ELSEIF,matmacico,eq,22,then
   457  	! Definindo o material elastoplástico VM do Ansys multilinear 
   458  	yield	    	= 2*c1			! [MPa]	tensão de escoamento  
   459  	Ep 		= 2*(c2-c1)/(eps1)	! [MPa] módulo plástico tangente 
   460  	youngt      	= Ep*E1/(E1+Ep)		! [MPa] módulo de elastoplástico tangente  
   461  	epst0		= 2*c1/E1		! [adm] deformação total no escoamento 
   462  	epst1		= 2*c2/E1 + eps1 	! [adm] deformação total na zona 1  
   463  	epst2		= 2*c2/E1 + eps2	! [adm] deformação total na zona 2	  
   464  	epst3		= 2*c3/E1 + eps3	! [adm] deformação total na zona 3   
   465  	!  
   466  	MPTEMP,1,0  		 
   467  	MPDATA,EX,1,,E1	   
   468  	MPDATA,PRXY,1,,nu1 	   
   469  	TB,MISO,1,1,5,0
   470  	TBTEMP,0   
   471  	TBPT,,epst0,2*c1   
   472  	TBPT,,epst1,2*c2   
   473  	TBPT,,epst2,2*c2   
   474  	TBPT,,epst3,2*c3   
   475  	TBPT,,0.1,2*c3 
   476  *ELSEIF,matmacico,eq,23,then
   477  	! Definindo o material viscoplastico perzyna VM do Ansys   
   478  	yieldvp	    	= 2*cvp				! [MPa]	tensão de escoamento  
   479  	youngtvp      	= 0				! [MPa] módulo de elastoplástico tangente  
   480  	gamma	      	= ((yieldvp/f0)**n1)/eta 	! [dias^-1] coeficiente Gamma do modelo de Perzyna Ansys
   481  	m  	      	= 1/n1				! [adm] coeficiente m do modelo de Perzyna do ANSYS   
   482  	!  
   483  	MPTEMP,1,0  		 
   484  	MPDATA,EX,1,,E1	   
   485  	MPDATA,PRXY,1,,nu1	
   486  	TB,BISO,1,1,2, 
   487  	TBTEMP,0   
   488  	TBDATA,,yieldvp,youngtvp,,,,   
   489  	TB,RATE,1,1,2,1
   490  	TBTEMP,0   
   491  	TBDATA,,m,gamma,,,,	   
   492  *ELSEIF,matmacico,eq,3,then 
   493  	! Definindo o material elastoplastico MC do Ansys  
   494  	MPTEMP,1,0 
   495  	MPDATA,EX,1,,E1
   496  	MPDATA,PRXY,1,,nu1 
   497  	TB,MC,1,,,BASE 
   498  	TBDATA,1,fi,c1,psi,fi,c1   
   499  *ELSEIF,matmacico,eq,4,then 
   500  	! Definindo material usermat3D VM do Ansys 
   501  	yield	    	= 2*c1			! [MPa]	tensão de escoamento  
   502  	Ep 		= 2*(c2-c1)/(eps1)	! [MPa] módulo plástico tangente 
   503  	youngt      	= Ep*E1/(E1+Ep)		! [MPa] módulo de elastoplástico tangente  
   504  	!  
   505  	TB,USER,1,2,5  
   506  	TBTEMP,1.0 		  
   507  	TBDATA,1,matmacico,E1,nu1,yield,youngt ! modelo, E, posn, sigy, H  
   508  	TB,STATE,1,,8  
   509  *ELSEIF,matmacico,eq,5,then 
   510  	! Definindo material usermat3D_elastico
   511  	TB,USER,1,2,3  
   512  	TBTEMP,1.0 		  
   513  	TBDATA,1,matmacico,E1,nu1  
   514  	TB,STATE,1,,8	 
   515  *ELSEIF,matmacico,eq,6,then 
   516  	! Definindo material usermat3D_EP  
   517  	TB,USER,1,2,14 
   518  	TBTEMP,1.0 		  
   519  	TBDATA,1,matmacico,E1,nu1  
   520  	TBDATA,4,superficief,superficieg   
   521  	TBDATA,6,fi,psi,   
   522  	TBDATA,8,c1,c2,c3,eps1,eps2,eps3   
   523  	TBDATA,14,Dalg 
   524  	TB,STATE,1,,20	
   525  *ELSEIF,matmacico,eq,7,then 
   526  	! Definindo material usermat3D_VP  
   527  	TB,USER,1,2,13 
   528  	TBTEMP,1.0 		  
   529  	TBDATA,1,matmacico,E1,nu1  
   530  	TBDATA,4,superficiefvp,superficiegvp   
   531  	TBDATA,6,fivp,psivp,   
   532  	TBDATA,8,cvp,n1,eta,f0,thetavp	
   533  	TB,STATE,1,,20		   
   534  *ELSEIF,matmacico,eq,8,then 
   535  	! Definindo material usermat3D_EPVP
   536  	TB,USER,1,2,23 
   537  	TBTEMP,1.0 		  
   538  	TBDATA,1,matmacico,E1,nu1  
   539  	TBDATA,4,superficief,superficieg   
   540  	TBDATA,6,fi,psi,   
   541  	TBDATA,8,c1,c2,c3,eps1,eps2,eps3   
   542  	TBDATA,14,Dalg 
   543  	TBDATA,15,superficiefvp,superficiegvp  
   544  	TBDATA,17,fivp,psivp   
   545  	TBDATA,19,cvp  
   546  	TBDATA,20,n1,eta,f0
   547  	TBDATA,23,thetavp	 
   548  	TB,STATE,1,,20 
   549  *ENDIF  
   550  !   
   551  !************************************************************!  
   552  !****_ 		3.4 Material do revestimento		_****!   
   553  !************************************************************!  
   554  *IF,matrev,EQ,1,THEN
   555  	*DO,i,2,nesc+nesc1,1   
   556  		MPTEMP,1,0  				  
   557  		MPDATA,EX,i,,E2				   
   558  		MPDATA,PRXY,i,,nu2
   559  	*ENDDO 			 
   560  *ELSEIF,matrev,EQ,2,THEN
   561  	*DO,i,2,nesc+nesc1,1   
   562  		TB,USER,i,1,18
   563  		TBTEMP,1.0
   564  		TBDATA,1,9
   565  		TBDATA,2,ligafluencia,ligaretracao
   566  		! 
   567  		*IF,escavagaleria,EQ,1,THEN   
   568  			*IF,i,LT,nesc+nesc1,THEN 
   569  				TBDATA,4,npi*tp+tp*(i-2)
   570  				TBDATA,10,s,rh,hf,betasc,alpha  
   571  			*ELSE
   572  				TBDATA,4,tp*nesc + tp1*np1 + tp1*(i-2)  
   573  				TBDATA,10,s,rh,hf1,betasc,alpha 
   574  			*ENDIF   
   575  		*ELSE 
   576  			TBDATA,4,npi*tp+tp*(i-2) 
   577  			TBDATA,10,s,rh,hf,betasc,alpha   
   578  		*ENDIF
   579  		! 
   580  		TBDATA,5,ts,t0,tinf   
   581  		TBDATA,8,fck,nu2  
   582  		TBDATA,15,ndec
   583  		TBDATA,16,ktime,kelemid,kkDomIntPt
   584  		TB,STATE,i,,500   
   585  	*ENDDO	
   586  *ENDIF  
   587  !   
   588  !************************************************************!  
   589  !****_ 		3.5 Modelando o sólido			_****!   
   590  !************************************************************!  
   591  !   
   592  ! Definindo a vista 
   593  /VIEW,1,1,1,1   
   594  /ANG,1  
   595  !   
   596  ! criando bloco e casca cilindrica do trecho não escavado  
   597  BLC4,-d4,0,l3/2,d3,l1   
   598  CYL4,0,0,ri,0,re,180,l1 
   599  !   
   600  ! criando bloco e casca cilindrica do trecho que será escavado 
   601  WPOFFS,0,0,l1   
   602  BLC4,-d4,0,l3/2,d3,l2   
   603  CYL4,0,0,ri,0,re,180,l2 
   604  !   
   605  ! excluindo volumes em comum
   606  VPTN,ALL
   607  !   
   608  ! tolerancia para operações booleanas 
   609  BTOL,1E-4   
   610  !   
   611  ! dividindo os volumes no plano vertical do eixo do tunel principal 
   612  WPOFFS,0,0,0
   613  WPRO,,,90.000000
   614  VSBW,ALL
   615  !   
   616  ! dividindo o volume entre tuneis na altura 
   617  VSEL,ALL
   618  VSEL,S,LOC,X,0,d1/2 
   619  WPOFFS,0,d1/2,0 
   620  WPRO,,90,   
   621  VSBW,ALL
   622  !   
   623  ! criando o mesmo volume no lado oposto do plano vertical do eixo do tunel  
   624  VSEL,ALL
   625  VSEL,S,LOC,X,0,d1/2 
   626  VSEL,R,LOC,Y,0,d1/2 
   627  CSYS,1  
   628  VSEL,U,LOC,X,0,re   
   629  CSYS,0  
   630  VSYMM,X,ALL, , ,0,1,0   
   631  !   
   632  ! criando primeiro tunel transversal
   633  WPAVE,0,0,0 
   634  WPCSYS,-1,0 
   635  WPOFFS,0,0,lt-d2/2		
   636  WPRO,,,90   
   637  CYL4,0,0,ri1,0,re1,180,d1/2 
   638  !   
   639  ! criando plano de corte da galeria transversal 
   640  CSYS,1  
   641  VSEL,ALL
   642  VSEL,S,LOC,Z,l1,lt  
   643  VSEL,R,LOC,X,ri/2,re
   644  ASEL,S,EXT  
   645  CSYS,1  
   646  ASEL,R,LOC,X,re,re  
   647  ASEL,R,LOC,Z,l1+l2/2,l1+l2/2
   648  CM,A0,AREA  
   649  !   
   650  ! cortando a galeria transversal
   651  CSYS,0  
   652  ALLSEL,ALL  
   653  VSEL,S,LOC,Z,lt-d2/2+re1,lt-d2/2-re1
   654  VSBA,ALL,A0 
   655  !   
   656  ! deletando trecho da galeria transversal dentro do tunel longitudinal  
   657  ALLSEL,ALL  
   658  WPAVE,0,0,0 
   659  WPCSYS,-1,0 
   660  VSEL,S,LOC,Z,lt-d2/2,lt-d2/2
   661  VSEL,R,LOC,X,0,re   
   662  VSEL,R,LOC,Y,0,re1  
   663  VDELE,ALL,,,1   
   664  !   
   665  ! Alterando posição da galeria para a metade de L2
   666  ALLSEL,ALL  
   667  WPAVE,0,0,0 
   668  WPCSYS,-1,0 
   669  VSEL,S,LOC,Z,lt-d2/2,lt-d2/2
   670  VSEL,R,LOC,X,re,d1/2
   671  VSEL,R,LOC,Y,0,re1  
   672  VGEN, ,ALL, , , , ,-d2/2, , ,1  
   673  !   
   674  ! cortando trecho do tunel principal
   675  VSEL,ALL
   676  WPAVE,0,0,0 
   677  WPCSYS,-1,0 
   678  WPOFFS,0,0,(lt-l2/2)+re1+d5		   
   679  VSBW,ALL
   680  WPOFFS,0,0,-2*re1-2*d5  
   681  VSBW,ALL
   682  !   
   683  ! particionando outros volumes  
   684  VSEL,ALL
   685  VPTN,ALL
   686  !   
   687  ! Cortando no meio da galeria   
   688  VSEL,ALL
   689  WPAVE,0,0,0 
   690  WPCSYS,-1,0 
   691  VSEL,S,LOC,Z,lt-l2/2-d5,lt-l2/2+d5  
   692  WPOFFS,0,0,lt-l2/2  
   693  VSBW,ALL
   694  !   
   695  ! Deletando os volumes na metade da galeria 
   696  VSEL,ALL
   697  WPAVE,0,0,0 
   698  WPCSYS,-1,0 
   699  VSEL,S,LOC,Z,l1+l2/2,l1+l2/2-re1-d5 
   700  VSEL,R,LOC,X,-d1/2,d1/2 
   701  VSEL,R,LOC,Y,0,d1/2 
   702  VDELE,ALL,,,1   
   703  !   
   704  ! juntando pontos duplicados
   705  ALLSEL,ALL  
   706  NUMMRG,KP, , , ,LOW 
   707  !   
   708  ! renumerando a geometria   
   709  NUMCMP,KP   
   710  NUMCMP,LINE 
   711  NUMCMP,AREA 
   712  NUMCMP,VOLU 
   713  !   
   714  !************************************************************!  
   715  !****_ 		3.6 Divisões para a malha nas linhas 	_****!  
   716  !************************************************************!  
   717  !   
   718  ! tamanho do elemento ao longo do eixo do tunel longitudinal no trecho escavado (parte a frente da galeria) 
   719  CSYS,0  
   720  LSEL,ALL
   721  LSEL,S,LOC,Z,lt-0.01,lt-l2/2+re1+d5+0.01
   722  LSEL,R,LOC,X,-d4,d1/2   
   723  LSEL,R,LOC,Y,0,d3   
   724  LESIZE,ALL,m1, , , , , , ,1 
   725  !   
   726  ! tamanho do elemento ao longo do eixo do tunel longitudinal no trecho escavado (parte anterior a galeria)  
   727  CSYS,0  
   728  LSEL,ALL
   729  LSEL,S,LOC,Z,lt-l2/2-re1-d5-0.01,lt-l2/2-d2+re1+d5+0.01 
   730  LSEL,R,LOC,X,-d4,d1/2   
   731  LSEL,R,LOC,Y,0,d3   
   732  LESIZE,ALL,m1, , , , , , ,1 
   733  !   
   734  ! interface entre solo e revestimento do tunel longitudinal 
   735  CSYS,1  
   736  LSEL,ALL
   737  LSEL,S,LOC,X,0.01,re
   738  LSEL,R,LOC,Y,1,180-1
   739  LSEL,R,LOC,Z,0,lt   
   740  LSEL,U,LOC,Y,89,91  
   741  LSEL,U,LOC,Z,lt-l2/2+re1-0.01,lt-l2/2-re1+0.01  
   742  LESIZE,ALL, , ,nCRe, , , , ,1   
   743  !   
   744  CSYS,1  
   745  LSEL,ALL
   746  LSEL,S,LOC,X,0.01,re
   747  LSEL,R,LOC,Y,1,180-1
   748  LSEL,R,LOC,Z,lt-l2/2,lt-l2/2
   749  LSEL,U,LOC,Y,89,91  
   750  LSEL,U,LOC,Y,0,90   
   751  LESIZE,ALL, , ,nCRe, , , , ,1   
   752  !   
   753  CSYS,1  
   754  LSEL,ALL
   755  LSEL,S,LOC,X,0.01,ri
   756  LSEL,R,LOC,Y,1,89   
   757  LSEL,R,LOC,Z,lt-l2/2,lt-l2/2
   758  LESIZE,ALL, , ,nCRe, , , , ,1   
   759  !   
   760  ! horizontal e vertical dentro do túnel longitudinal   
   761  CSYS,1  
   762  LSEL,ALL
   763  LSEL,S,LOC,X,0,ri-0.01  
   764  LSEL,R,LOC,Y,0,180  
   765  LSEL,R,LOC,Z,0,lt   
   766  LSEL,U,LOC,Z,lt-0.01,lt-l2/2+re1+0.01+d5
   767  LSEL,U,LOC,Z,lt-l2/2-re1-0.01-d5,l1+0.01
   768  LSEL,U,LOC,Z,l1-0.01,0.01   
   769  LSEL,U,LOC,Z,lt-l2/2+d5+re1-0.01,lt-l2/2+0.01   
   770  LSEL,U,LOC,Z,lt-l2/2-0.01,lt-l2/2-re1-d5+0.01   
   771  LESIZE,ALL, , ,nRi,mRi, , , ,1  
   772  !   
   773  ! horizontal e vertical contigua ao tunel longitudinal  
   774  CSYS,1  
   775  LSEL,ALL
   776  LSEL,S,LOC,X,re+0.01,d1/2-0.01  
   777  LSEL,R,LOC,Y,0,180  
   778  LSEL,R,LOC,Z,0,l1+l2/2-re1-d5   
   779  LESIZE,ALL, , ,nd1,md1, , , ,1  
   780  !   
   781  CSYS,1  
   782  LSEL,ALL
   783  LSEL,S,LOC,X,re+0.01,d1/2-0.01  
   784  LSEL,R,LOC,Y,0,180  
   785  LSEL,R,LOC,Z,l1+l2/2+re1+d5,lt  
   786  LESIZE,ALL, , ,nd1,md1, , , ,1  
   787  !   
   788  CSYS,1  
   789  LSEL,ALL
   790  LSEL,S,LOC,X,re+0.01,d1/2-0.01  
   791  LSEL,R,LOC,Y,90,180 
   792  LSEL,R,LOC,Z,l1+l2/2,l1+l2/2
   793  LESIZE,ALL, , ,nd1,md1, , , ,1  
   794  !   
   795  LSEL,ALL
   796  LSEL,S,LOC,Y,89,91  
   797  LSEL,R,LOC,Z,lt-l2/2,lt-l2/2
   798  LREVERSE,ALL
   799  !   
   800  CSYS,1  
   801  LSEL,ALL
   802  LSEL,S,LOC,X,re+0.01,d1/2-0.01  
   803  LSEL,R,LOC,Y,89,90  
   804  LSEL,R,LOC,Z,l1+l2/2+re1+d5,l1+l2/2-re1-d5  
   805  LREVERSE,ALL
   806  !   
   807  ! Virando algumas linhas
   808  CSYS,1  
   809  LSEL,ALL
   810  LSEL,S,LOC,X,re+0.01,d1/2-0.01  
   811  LSEL,R,LOC,Y,0,0.01 
   812  LSEL,R,LOC,Z,0,l1   
   813  LREVERSE,ALL
   814  !   
   815  LSEL,ALL
   816  LSEL,S,LOC,X,re+1,d1/2-0.01 
   817  LSEL,R,LOC,Y,0,0.01 
   818  LSEL,R,LOC,Z,lt,lt  
   819  LREVERSE,ALL
   820  !   
   821  LSEL,ALL
   822  LSEL,S,LOC,X,re+0.01,d1/2-0.01  
   823  LSEL,R,LOC,Y,179,181
   824  LSEL,R,LOC,Z,0,l1   
   825  LREVERSE,ALL
   826  !   
   827  ! horizontal e vertical contigua a região de refinamento do túnel longitudinal
   828  CSYS,0  
   829  LSEL,ALL
   830  LSEL,S,LOC,X,-d1/2-0.01,-d4+0.01
   831  LSEL,R,LOC,Y,0,0.01 
   832  LSEL,R,LOC,Z,0,lt   
   833  LESIZE,ALL, , ,nd4,md4, , , ,1  
   834  !   
   835  CSYS,0  
   836  LSEL,ALL
   837  LSEL,S,LOC,X,0,d1/2 
   838  LSEL,R,LOC,Y,d1/2+0.01,d3-0.01  
   839  LSEL,R,LOC,Z,0,lt   
   840  LREVERSE,ALL
   841  LESIZE,ALL, , ,nd4,md4, , , ,1  
   842  !   
   843  CSYS,0  
   844  LSEL,ALL
   845  LSEL,S,LOC,X,-d1/2,0
   846  LSEL,R,LOC,Y,d1/2+0.01,d3-0.01  
   847  LSEL,R,LOC,Z,l1+l2/2,l1+l2/2
   848  LREVERSE,ALL
   849  !   
   850  CSYS,0  
   851  LSEL,ALL
   852  LSEL,S,LOC,X,-d1/2-0.01,-d4+0.01
   853  LSEL,R,LOC,Y,0,0.01 
   854  LSEL,R,LOC,Z,0,l1   
   855  LREVERSE,ALL
   856  !   
   857  CSYS,0  
   858  LSEL,ALL
   859  LSEL,S,LOC,X,-d1/2-0.01,-d4+0.01
   860  LSEL,R,LOC,Y,0,0.01 
   861  LSEL,R,LOC,Z,lt,lt-0.01 
   862  LREVERSE,ALL
   863  !   
   864  ! horizontal e vertical oposta ao tunel longitudinal
   865  CSYS,0  
   866  LSEL,ALL
   867  LSEL,S,LOC,X,-d1/2+1,-d1/2-0.01 
   868  LSEL,R,LOC,Y,0.01,d1/2-0.01 
   869  LSEL,R,LOC,Z,0,lt   
   870  LESIZE,ALL, , ,nd3, , , , ,1
   871  !   
   872  CSYS,0  
   873  LSEL,ALL
   874  LSEL,S,LOC,X,d1/2+0.01,d1/2-0.01
   875  LSEL,R,LOC,Y,re,d1/2-0.01   
   876  LSEL,R,LOC,Z,0,lt   
   877  LSEL,U,LOC,Z,lt-l2/2,lt-l2/2
   878  LESIZE,ALL, , ,nd3, , , , ,1
   879  !   
   880  CSYS,0  
   881  LSEL,ALL
   882  LSEL,S,LOC,X,0.01,d1/2-0.01 
   883  LSEL,R,LOC,Y,d1/2-0.01,d3   
   884  LSEL,R,LOC,Z,0,lt   
   885  LESIZE,ALL, , ,nd3, , , , ,1
   886  !   
   887  CSYS,0  
   888  LSEL,ALL
   889  LSEL,S,LOC,X,-0.01,-d1/2+0.01   
   890  LSEL,R,LOC,Y,d1/2-0.01,d1/2+0.01
   891  LSEL,R,LOC,Z,0,lt   
   892  LESIZE,ALL, , ,nd3, , , , ,1
   893  !   
   894  CSYS,0  
   895  LSEL,ALL
   896  LSEL,S,LOC,X,-0.01,-d4+0.01 
   897  LSEL,R,LOC,Y,d3-0.01,d3+0.01
   898  LSEL,R,LOC,Z,0,lt   
   899  LESIZE,ALL, , ,nd3, , , , ,1
   900  !   
   901  CSYS,0  
   902  LSEL,ALL
   903  LSEL,S,LOC,X,-d4-0.01,-d4+0.01  
   904  LSEL,R,LOC,Y,0.01,d3-0.01   
   905  LSEL,R,LOC,Z,0,lt   
   906  LESIZE,ALL, , ,nd3, , , , ,1
   907  !   
   908  ! numero de elementos na espessura do revestimento do tunel longitudinal
   909  CSYS,0  
   910  LSEL,ALL
   911  LSEL,S,LOC,X,ri+0.01,re-0.01
   912  LSEL,R,LOC,Y,0,0.01 
   913  LSEL,R,LOC,Z,0,lt   
   914  LESIZE,ALL, , ,nesp, , , , ,1   
   915  !   
   916  CSYS,0  
   917  LSEL,ALL
   918  LSEL,S,LOC,X,-ri-0.01,-re+0.01  
   919  LSEL,R,LOC,Y,0,0.01 
   920  LSEL,R,LOC,Z,0,lt   
   921  LESIZE,ALL, , ,nesp, , , , ,1   
   922  !   
   923  ! tamanho dos elementos na região do tunel oposta a galeria
   924  CSYS,0  
   925  LSEL,ALL
   926  LSEL,S,LOC,X,-re-0.01,-d4   
   927  LSEL,R,LOC,Y,0,d3   
   928  LSEL,R,LOC,Z,lt-l2/2+(re1+d5)/2,lt-l2/2+(re1+d5)/2  
   929  LESIZE,ALL,m9, , , , , , ,1 
   930  !   
   931  CSYS,0  
   932  LSEL,ALL
   933  LSEL,S,LOC,X,-re-0.01,-d4   
   934  LSEL,R,LOC,Y,0,d3   
   935  LSEL,R,LOC,Z,lt-l2/2-(re1+d5)/2,lt-l2/2-(re1+d5)/2  
   936  LESIZE,ALL,m9, , , , , , ,1 
   937  !   
   938  CSYS,0  
   939  LSEL,ALL
   940  LSEL,S,LOC,X,0,d1/2 
   941  LSEL,R,LOC,Y,d1/2,d3
   942  LSEL,R,LOC,Z,lt-l2/2+(re1+d5)/2,lt-l2/2+(re1+d5)/2  
   943  LESIZE,ALL,m9, , , , , , ,1 
   944  !   
   945  CSYS,0  
   946  LSEL,ALL
   947  LSEL,S,LOC,X,0,d1/2 
   948  LSEL,R,LOC,Y,d1/2,d3
   949  LSEL,R,LOC,Z,lt-l2/2-(re1+d5)/2,lt-l2/2-(re1+d5)/2  
   950  LESIZE,ALL,m9, , , , , , ,1 
   951  !   
   952  ! elementos ao longo do eixo do tunel longitudinal no trecho não escavado  
   953  CSYS,0  
   954  LSEL,ALL
   955  LSEL,S,LOC,Z,0.01,lt-2*d2-0.01  
   956  LSEL,R,LOC,X,-d4+0.01,d1/2  
   957  LSEL,R,LOC,Y,0,d3   
   958  LREVERSE,ALL
   959  LESIZE,ALL, , ,nL1,1/mL1, , , ,1
   960  !   
   961  CSYS,0  
   962  LSEL,ALL
   963  LSEL,S,LOC,Z,0.01,lt-2*d2-0.01  
   964  LSEL,R,LOC,X,-d4,-d4+0.01   
   965  LSEL,R,LOC,Y,0,d3   
   966  LREVERSE,ALL
   967  LESIZE,ALL, , ,nL1,mL1, , , ,1  
   968  !   
   969  ! Adjacente ao a galeria transversal
   970  CSYS,0  
   971  LSEL,ALL
   972  LSEL,S,LOC,Z,lt-l2/2+re1+d5-0.01,lt-l2/2+re1+0.01   
   973  LSEL,R,LOC,X,re-0.01,d1/2   
   974  LSEL,R,LOC,Y,0,0.01 
   975  LESIZE,ALL, , ,nd5,md5, , , ,1  
   976  !   
   977  ! Vertical acima da galeria transversal 
   978  CSYS,0  
   979  LSEL,ALL
   980  LSEL,S,LOC,Z,lt-l2/2,lt-l2/2
   981  LSEL,R,LOC,X,d1/2,d1/2  
   982  LSEL,R,LOC,Y,re1,d1/2   
   983  LESIZE,ALL, , ,nd6,md6, , , ,1  
   984  !   
   985  CSYS,0  
   986  LSEL,ALL
   987  LSEL,S,LOC,Z,lt-l2/2,lt-l2/2
   988  LSEL,R,LOC,X,0,d1/2 
   989  LSEL,R,LOC,Y,re,d1/2-0.01   
   990  LREVERSE,ALL
   991  !   
   992  !   
   993  !************************************************************!  
   994  !****_ 		3.7 Concatenando áreas da malha mapeada _****!
   995  !************************************************************!  
   996  !   
   997  ! primeiro trecho   
   998  ALLSEL,ALL  
   999  VSEL,S,LOC,X,0,d1/2 
  1000  VSEL,R,LOC,Y,0,d1/2 
  1001  VSEL,R,LOC,Z,lt,lt-l2/2+re1+d5  
  1002  CSYS,1  
  1003  VSEL,U,LOC,X,0,Re   
  1004  CSYS,0  
  1005  ASEL,S,EXT  
  1006  ASEL,R,LOC,X,d1/2   
  1007  CM,A1,AREA  
  1008  ALLSEL,ALL  
  1009  VSEL,S,LOC,X,0,d1/2 
  1010  VSEL,R,LOC,Y,0,d1/2 
  1011  VSEL,R,LOC,Z,lt,lt-l2/2+re1+d5  
  1012  CSYS,1  
  1013  VSEL,U,LOC,X,0,Re   
  1014  CSYS,0  
  1015  ASEL,S,EXT  
  1016  ASEL,R,LOC,Y,d1/2   
  1017  CM,A2,AREA  
  1018  CMSEL,S,A1,AREA 
  1019  CMSEL,A,A2,AREA 
  1020  ACCAT,ALL   
  1021  !   
  1022  ALLSEL,ALL  
  1023  VSEL,S,LOC,X,0,-d1/2
  1024  VSEL,R,LOC,Y,0,d1/2 
  1025  VSEL,R,LOC,Z,lt,lt-l2/2+re1+d5  
  1026  CSYS,1  
  1027  VSEL,U,LOC,X,0,Re   
  1028  CSYS,0  
  1029  ASEL,S,EXT  
  1030  ASEL,R,LOC,X,-d1/2  
  1031  CM,A1,AREA  
  1032  ALLSEL,ALL  
  1033  VSEL,S,LOC,X,0,-d1/2
  1034  VSEL,R,LOC,Y,0,d1/2 
  1035  VSEL,R,LOC,Z,lt,lt-l2/2+re1+d5  
  1036  CSYS,1  
  1037  VSEL,U,LOC,X,0,Re   
  1038  CSYS,0  
  1039  ASEL,S,EXT  
  1040  ASEL,R,LOC,Y,d1/2   
  1041  CM,A2,AREA  
  1042  CMSEL,S,A1,AREA 
  1043  CMSEL,A,A2,AREA 
  1044  ACCAT,ALL   
  1045  !   
  1046  ALLSEL,ALL  
  1047  VSEL,S,LOC,X,-d4,-d1/2  
  1048  VSEL,R,LOC,Y,0,d3/2 
  1049  VSEL,R,LOC,Z,lt,lt-l2/2+re1+d5  
  1050  ASEL,S,EXT  
  1051  ASEL,R,LOC,X,-d4
  1052  CM,A1,AREA  
  1053  ALLSEL,ALL  
  1054  VSEL,S,LOC,X,-d4,-d1/2  
  1055  VSEL,R,LOC,Y,0,d3/2 
  1056  VSEL,R,LOC,Z,lt,lt-l2/2+re1+d5  
  1057  ASEL,S,EXT  
  1058  ASEL,R,LOC,Y,d3 
  1059  CM,A2,AREA  
  1060  CMSEL,S,A1,AREA 
  1061  CMSEL,A,A2,AREA 
  1062  ACCAT,ALL   
  1063  !   
  1064  ! segundo trecho
  1065  ALLSEL,ALL  
  1066  VSEL,S,LOC,X,0,d1/2 
  1067  VSEL,R,LOC,Y,0,d1/2 
  1068  VSEL,R,LOC,Z,lt-l2/2-re1-d5,lt-l2   
  1069  CSYS,1  
  1070  VSEL,U,LOC,X,0,Re   
  1071  CSYS,0  
  1072  ASEL,S,EXT  
  1073  ASEL,R,LOC,X,d1/2   
  1074  CM,A1,AREA  
  1075  ALLSEL,ALL  
  1076  VSEL,S,LOC,X,0,d1/2 
  1077  VSEL,R,LOC,Y,0,d1/2 
  1078  VSEL,R,LOC,Z,lt-l2/2-re1-d5,lt-l2   
  1079  CSYS,1  
  1080  VSEL,U,LOC,X,0,Re   
  1081  CSYS,0  
  1082  ASEL,S,EXT  
  1083  ASEL,R,LOC,Y,d1/2   
  1084  CM,A2,AREA  
  1085  CMSEL,S,A1,AREA 
  1086  CMSEL,A,A2,AREA 
  1087  ACCAT,ALL   
  1088  !   
  1089  ALLSEL,ALL  
  1090  VSEL,S,LOC,X,0,-d1/2
  1091  VSEL,R,LOC,Y,0,d1/2 
  1092  VSEL,R,LOC,Z,lt-l2/2-re1-d5,lt-l2   
  1093  CSYS,1  
  1094  VSEL,U,LOC,X,0,Re   
  1095  CSYS,0  
  1096  ASEL,S,EXT  
  1097  ASEL,R,LOC,X,-d1/2  
  1098  CM,A1,AREA  
  1099  ALLSEL,ALL  
  1100  VSEL,S,LOC,X,0,-d1/2
  1101  VSEL,R,LOC,Y,0,d1/2 
  1102  VSEL,R,LOC,Z,lt-l2/2-re1-d5,lt-l2   
  1103  CSYS,1  
  1104  VSEL,U,LOC,X,0,Re   
  1105  CSYS,0  
  1106  ASEL,S,EXT  
  1107  ASEL,R,LOC,Y,d1/2   
  1108  CM,A2,AREA  
  1109  CMSEL,S,A1,AREA 
  1110  CMSEL,A,A2,AREA 
  1111  ACCAT,ALL   
  1112  !   
  1113  ALLSEL,ALL  
  1114  VSEL,S,LOC,X,-d4,-d1/2  
  1115  VSEL,R,LOC,Y,0,d3/2 
  1116  VSEL,R,LOC,Z,lt-l2/2-re1-d5,lt-l2   
  1117  ASEL,S,EXT  
  1118  ASEL,R,LOC,X,-d4
  1119  CM,A1,AREA  
  1120  ALLSEL,ALL  
  1121  VSEL,S,LOC,X,-d4,-d1/2  
  1122  VSEL,R,LOC,Y,0,d3/2 
  1123  VSEL,R,LOC,Z,lt-l2/2-re1-d5,lt-l2   
  1124  ASEL,S,EXT  
  1125  ASEL,R,LOC,Y,d3 
  1126  CM,A2,AREA  
  1127  CMSEL,S,A1,AREA 
  1128  CMSEL,A,A2,AREA 
  1129  ACCAT,ALL   
  1130  !   
  1131  ! terceiro trecho (trecho não escavado)
  1132  ALLSEL,ALL  
  1133  VSEL,S,LOC,X,0,d1/2 
  1134  VSEL,R,LOC,Y,0,d1/2 
  1135  VSEL,R,LOC,Z,0,l1   
  1136  CSYS,1  
  1137  VSEL,U,LOC,X,0,Re   
  1138  CSYS,0  
  1139  ASEL,S,EXT  
  1140  ASEL,R,LOC,X,d1/2   
  1141  CM,A1,AREA  
  1142  ALLSEL,ALL  
  1143  VSEL,S,LOC,X,0,d1/2 
  1144  VSEL,R,LOC,Y,0,d1/2 
  1145  VSEL,R,LOC,Z,0,l1   
  1146  CSYS,1  
  1147  VSEL,U,LOC,X,0,Re   
  1148  CSYS,0  
  1149  ASEL,S,EXT  
  1150  ASEL,R,LOC,Y,d1/2   
  1151  CM,A2,AREA  
  1152  CMSEL,S,A1,AREA 
  1153  CMSEL,A,A2,AREA 
  1154  ACCAT,ALL   
  1155  !   
  1156  ALLSEL,ALL  
  1157  VSEL,S,LOC,X,0,-d1/2
  1158  VSEL,R,LOC,Y,0,d1/2 
  1159  VSEL,R,LOC,Z,0,l1   
  1160  CSYS,1  
  1161  VSEL,U,LOC,X,0,Re   
  1162  CSYS,0  
  1163  ASEL,S,EXT  
  1164  ASEL,R,LOC,X,-d1/2  
  1165  CM,A1,AREA  
  1166  ALLSEL,ALL  
  1167  VSEL,S,LOC,X,0,-d1/2
  1168  VSEL,R,LOC,Y,0,d1/2 
  1169  VSEL,R,LOC,Z,0,l1   
  1170  CSYS,1  
  1171  VSEL,U,LOC,X,0,Re   
  1172  CSYS,0  
  1173  ASEL,S,EXT  
  1174  ASEL,R,LOC,Y,d1/2   
  1175  CM,A2,AREA  
  1176  CMSEL,S,A1,AREA 
  1177  CMSEL,A,A2,AREA 
  1178  ACCAT,ALL   
  1179  !   
  1180  ALLSEL,ALL  
  1181  VSEL,S,LOC,X,-d4,-d1/2  
  1182  VSEL,R,LOC,Y,0,d3/2 
  1183  VSEL,R,LOC,Z,0,l1   
  1184  ASEL,S,EXT  
  1185  ASEL,R,LOC,X,-d4
  1186  CM,A1,AREA  
  1187  ALLSEL,ALL  
  1188  VSEL,S,LOC,X,-d4,-d1/2  
  1189  VSEL,R,LOC,Y,0,d3/2 
  1190  VSEL,R,LOC,Z,0,l1   
  1191  ASEL,S,EXT  
  1192  ASEL,R,LOC,Y,d3 
  1193  CM,A2,AREA  
  1194  CMSEL,S,A1,AREA 
  1195  CMSEL,A,A2,AREA 
  1196  ACCAT,ALL   
  1197  !   
  1198  ! entre o primeiro e segundo trecho 
  1199  ALLSEL,ALL  
  1200  VSEL,S,LOC,X,0,-d1/2
  1201  VSEL,R,LOC,Y,0,d1/2 
  1202  VSEL,R,LOC,Z,lt-l2/2+re1+d5,lt-l2/2 
  1203  CSYS,1  
  1204  VSEL,U,LOC,X,0,Re   
  1205  CSYS,0  
  1206  ASEL,S,EXT  
  1207  ASEL,R,LOC,X,-d1/2  
  1208  CM,A1,AREA  
  1209  ALLSEL,ALL  
  1210  VSEL,S,LOC,X,0,-d1/2
  1211  VSEL,R,LOC,Y,0,d1/2 
  1212  VSEL,R,LOC,Z,lt-l2/2+re1+d5,lt-l2/2 
  1213  CSYS,1  
  1214  VSEL,U,LOC,X,0,Re   
  1215  CSYS,0  
  1216  ASEL,S,EXT  
  1217  ASEL,R,LOC,Y,d1/2   
  1218  CM,A2,AREA  
  1219  CMSEL,S,A1,AREA 
  1220  CMSEL,A,A2,AREA 
  1221  ACCAT,ALL   
  1222  !   
  1223  !ALLSEL,ALL 
  1224  !VSEL,S,LOC,X,-re,-d1/2 
  1225  !VSEL,R,LOC,Y,re,d1/2   
  1226  !VSEL,R,LOC,Z,lt-l2/2,lt-l2/2-re1-d5
  1227  !ASEL,S,EXT 
  1228  !ASEL,R,LOC,X,-d1/2 
  1229  !CM,A1,AREA 
  1230  !ALLSEL,ALL 
  1231  !VSEL,S,LOC,X,-re,-d1/2 
  1232  !VSEL,R,LOC,Y,re,d1/2   
  1233  !VSEL,R,LOC,Z,lt-l2/2,lt-l2/2-re1-d5
  1234  !ASEL,S,EXT 
  1235  !ASEL,R,LOC,Y,d1/2  
  1236  !CM,A2,AREA 
  1237  !CMSEL,S,A1,AREA
  1238  !CMSEL,A,A2,AREA
  1239  !ACCAT,ALL  
  1240  !   
  1241  ALLSEL,ALL  
  1242  VSEL,S,LOC,X,-d4,-d1/2  
  1243  VSEL,R,LOC,Y,0,d3/2 
  1244  VSEL,R,LOC,Z,lt-l2/2+re1+d5,lt-l2/2 
  1245  ASEL,S,EXT  
  1246  ASEL,R,LOC,X,-d4
  1247  CM,A1,AREA  
  1248  ALLSEL,ALL  
  1249  VSEL,S,LOC,X,-d4,-d1/2  
  1250  VSEL,R,LOC,Y,0,d3/2 
  1251  VSEL,R,LOC,Z,lt-l2/2+re1+d5,lt-l2/2 
  1252  ASEL,S,EXT  
  1253  ASEL,R,LOC,Y,d3 
  1254  CM,A2,AREA  
  1255  CMSEL,S,A1,AREA 
  1256  CMSEL,A,A2,AREA 
  1257  ACCAT,ALL   
  1258  !   
  1259  ALLSEL,ALL  
  1260  VSEL,S,LOC,X,-d4,-d1/2  
  1261  VSEL,R,LOC,Y,0,d3/2 
  1262  VSEL,R,LOC,Z,lt-l2/2,lt-l2/2-re1-d5 
  1263  ASEL,S,EXT  
  1264  ASEL,R,LOC,X,-d4
  1265  CM,A1,AREA  
  1266  ALLSEL,ALL  
  1267  VSEL,S,LOC,X,-d4,-d1/2  
  1268  VSEL,R,LOC,Y,0,d3/2 
  1269  VSEL,R,LOC,Z,lt-l2/2,lt-l2/2-re1-d5 
  1270  ASEL,S,EXT  
  1271  ASEL,R,LOC,Y,d3 
  1272  CM,A2,AREA  
  1273  CMSEL,S,A1,AREA 
  1274  CMSEL,A,A2,AREA 
  1275  ACCAT,ALL   
  1276  !************************************************************!  
  1277  !****_ 		3.8 Grupos de volumes para malhar 	_****!  
  1278  !************************************************************!  
  1279  !   
  1280  ! volumes do maciço com malha mapeada  
  1281  CSYS,0  
  1282  ALLSEL,ALL  
  1283  VSEL,S,LOC,X,0,d1/2 
  1284  VSEL,R,LOC,Y,0,d1/2 
  1285  VSEL,R,LOC,Z,lt,lt-l2/2+re1+d5  
  1286  CSYS,1  
  1287  VSEL,U,LOC,X,0,Re   
  1288  CSYS,0  
  1289  CM,VA1,VOLUME   
  1290  !   
  1291  CSYS,0  
  1292  ALLSEL,ALL  
  1293  VSEL,S,LOC,X,0,-d1/2
  1294  VSEL,R,LOC,Y,0,d1/2 
  1295  VSEL,R,LOC,Z,lt,lt-l2/2+re1+d5  
  1296  CSYS,1  
  1297  VSEL,U,LOC,X,0,Re   
  1298  CSYS,0  
  1299  CM,VA2,VOLUME   
  1300  !   
  1301  CSYS,0  
  1302  ALLSEL,ALL  
  1303  VSEL,S,LOC,X,0,d1/2 
  1304  VSEL,R,LOC,Y,d1/2+0.01,d3   
  1305  VSEL,R,LOC,Z,l1+l2/2+d5,lt  
  1306  CM,VA3,VOLUME   
  1307  !   
  1308  CSYS,0  
  1309  ALLSEL,ALL  
  1310  VSEL,S,LOC,X,-d4,-d1/2  
  1311  VSEL,R,LOC,Y,0,d3/2 
  1312  VSEL,R,LOC,Z,lt,lt-l2/2+re1+d5  
  1313  CM,VA4,VOLUME   
  1314  !   
  1315  CSYS,0  
  1316  ALLSEL,ALL  
  1317  VSEL,S,LOC,X,-4*ri/(3*vpi),4*ri/(3*vpi) 
  1318  VSEL,R,LOC,Y,0,4*ri/(3*vpi) 
  1319  VSEL,R,LOC,Z,lt,lt-l2/2+re1+d5  
  1320  CM,VA5,VOLUME   
  1321  !   
  1322  CSYS,1  
  1323  ALLSEL,ALL  
  1324  VSEL,S,LOC,X,0,re   
  1325  VSEL,R,LOC,Y,0,180  
  1326  VSEL,R,LOC,Z,lt,lt-l2/2+re1+d5  
  1327  CMSEL,U,VA5,VOLUME  
  1328  CM,VA6,VOLUME   
  1329  !   
  1330  CMSEL,S,VA1,VOLU
  1331  CMSEL,A,VA2,VOLU
  1332  CMSEL,A,VA3,VOLU
  1333  CMSEL,A,VA4,VOLU
  1334  CMSEL,A,VA5,VOLU
  1335  CMSEL,A,VA6,VOLU
  1336  !   
  1337  CSYS,0  
  1338  ALLSEL,ALL  
  1339  VSEL,S,LOC,X,0,d1/2 
  1340  VSEL,R,LOC,Y,0,d1/2 
  1341  VSEL,R,LOC,Z,lt-l2/2-re1-d5,l1  
  1342  CSYS,1  
  1343  VSEL,U,LOC,X,0,Re   
  1344  CSYS,0  
  1345  CM,VB1,VOLUME   
  1346  !   
  1347  CSYS,0  
  1348  ALLSEL,ALL  
  1349  VSEL,S,LOC,X,0,-d1/2
  1350  VSEL,R,LOC,Y,0,d1/2 
  1351  VSEL,R,LOC,Z,lt-l2/2-re1-d5,l1  
  1352  CSYS,1  
  1353  VSEL,U,LOC,X,0,Re   
  1354  CSYS,0  
  1355  CM,VB2,VOLUME   
  1356  !   
  1357  CSYS,0  
  1358  ALLSEL,ALL  
  1359  VSEL,S,LOC,X,0,d1/2 
  1360  VSEL,R,LOC,Y,d1/2+0.01,d3   
  1361  VSEL,R,LOC,Z,l1,l1+l2/2-d5  
  1362  CM,VB3,VOLUME   
  1363  !   
  1364  CSYS,0  
  1365  ALLSEL,ALL  
  1366  VSEL,S,LOC,X,-d4,-d1/2  
  1367  VSEL,R,LOC,Y,0,d3/2 
  1368  VSEL,R,LOC,Z,lt-l2/2-re1-d5,l1  
  1369  CM,VB4,VOLUME   
  1370  !   
  1371  CSYS,0  
  1372  ALLSEL,ALL  
  1373  VSEL,S,LOC,X,-4*ri/(3*vpi),4*ri/(3*vpi) 
  1374  VSEL,R,LOC,Y,0,4*ri/(3*vpi) 
  1375  VSEL,R,LOC,Z,l1,l1+l2/2-re1-d5  
  1376  CM,VB5,VOLUME   
  1377  !   
  1378  CSYS,1  
  1379  ALLSEL,ALL  
  1380  VSEL,S,LOC,X,0,re   
  1381  VSEL,R,LOC,Y,0,180  
  1382  VSEL,R,LOC,Z,l1,l1+l2/2-re1-d5  
  1383  CMSEL,U,VB5,VOLUME  
  1384  CM,VB6,VOLUME   
  1385  !   
  1386  !   
  1387  CMSEL,S,VB1,VOLU
  1388  CMSEL,A,VB2,VOLU
  1389  CMSEL,A,VB3,VOLU
  1390  CMSEL,A,VB4,VOLU
  1391  CMSEL,A,VB5,VOLU
  1392  CMSEL,A,VB6,VOLU
  1393  !   
  1394  CSYS,0  
  1395  ALLSEL,ALL  
  1396  VSEL,S,LOC,X,0,d1/2 
  1397  VSEL,R,LOC,Y,0,d1/2 
  1398  VSEL,R,LOC,Z,0,l1   
  1399  CSYS,1  
  1400  VSEL,U,LOC,X,0,Re   
  1401  CSYS,0  
  1402  CM,VC1,VOLUME   
  1403  !   
  1404  CSYS,0  
  1405  ALLSEL,ALL  
  1406  VSEL,S,LOC,X,0,-d1/2
  1407  VSEL,R,LOC,Y,0,d1/2 
  1408  VSEL,R,LOC,Z,0,l1   
  1409  CSYS,1  
  1410  VSEL,U,LOC,X,0,Re   
  1411  CSYS,0  
  1412  CM,VC2,VOLUME   
  1413  !   
  1414  CSYS,0  
  1415  ALLSEL,ALL  
  1416  VSEL,S,LOC,X,0,d1/2 
  1417  VSEL,R,LOC,Y,d1/2+0.01,d3   
  1418  VSEL,R,LOC,Z,0,l1   
  1419  CM,VC3,VOLUME   
  1420  !   
  1421  CSYS,0  
  1422  ALLSEL,ALL  
  1423  VSEL,S,LOC,X,-d4,-d1/2  
  1424  VSEL,R,LOC,Y,0,d3/2 
  1425  VSEL,R,LOC,Z,0,l1   
  1426  CM,VC4,VOLUME   
  1427  !   
  1428  CSYS,0  
  1429  ALLSEL,ALL  
  1430  VSEL,S,LOC,X,-4*ri/(3*vpi),4*ri/(3*vpi) 
  1431  VSEL,R,LOC,Y,0,4*ri/(3*vpi) 
  1432  VSEL,R,LOC,Z,0,l1   
  1433  CM,VC5,VOLUME   
  1434  !   
  1435  CSYS,1  
  1436  ALLSEL,ALL  
  1437  VSEL,S,LOC,X,0,re   
  1438  VSEL,R,LOC,Y,0,180  
  1439  VSEL,R,LOC,Z,0,l1   
  1440  CMSEL,U,VC5,VOLUME  
  1441  CM,VC6,VOLUME   
  1442  !   
  1443  CMSEL,S,VC1,VOLU
  1444  CMSEL,A,VC2,VOLU
  1445  CMSEL,A,VC3,VOLU
  1446  CMSEL,A,VC4,VOLU
  1447  CMSEL,A,VC5,VOLU
  1448  CMSEL,A,VC6,VOLU
  1449  !   
  1450  CSYS,0  
  1451  CSYS,0  
  1452  ALLSEL,ALL  
  1453  VSEL,S,LOC,X,0,d1/2 
  1454  VSEL,R,LOC,Y,re1,d1/2   
  1455  VSEL,R,LOC,Z,lt-l2/2+re1+d5,lt-l2/2!-re1-d5 
  1456  CSYS,1  
  1457  VSEL,U,LOC,X,0,Re   
  1458  CSYS,0  
  1459  CM,VD1,VOLUME   
  1460  !   
  1461  CSYS,0  
  1462  ALLSEL,ALL  
  1463  VSEL,S,LOC,X,0,-d1/2
  1464  VSEL,R,LOC,Y,0,d1/2 
  1465  VSEL,R,LOC,Z,lt-l2/2+re1+d5,lt-l2/2!-re1-d5 
  1466  CSYS,1  
  1467  VSEL,U,LOC,X,0,Re   
  1468  CSYS,0  
  1469  CM,VD2,VOLUME   
  1470  !   
  1471  CSYS,0  
  1472  ALLSEL,ALL  
  1473  VSEL,S,LOC,X,0,d1/2 
  1474  VSEL,R,LOC,Y,d1/2+0.01,d3   
  1475  VSEL,R,LOC,Z,l1+l2/2+d5,l1+l2/2-d5  
  1476  CM,VD3,VOLUME   
  1477  !   
  1478  CSYS,0  
  1479  ALLSEL,ALL  
  1480  VSEL,S,LOC,X,-d4,-d1/2  
  1481  VSEL,R,LOC,Y,0,d3/2 
  1482  VSEL,R,LOC,Z,lt-l2/2+re1+d5,lt-l2/2-re1-d5  
  1483  CM,VD4,VOLUME   
  1484  !   
  1485  CSYS,0  
  1486  ALLSEL,ALL  
  1487  VSEL,S,LOC,X,0,4*ri/(3*vpi) 
  1488  VSEL,R,LOC,Y,0,4*ri/(3*vpi) 
  1489  VSEL,R,LOC,Z,lt-l2/2+re1+d5,lt-l2/2-re1-d5  
  1490  CM,VD51,VOLUME  
  1491  !   
  1492  CSYS,0  
  1493  ALLSEL,ALL  
  1494  VSEL,S,LOC,X,-4*ri/(3*vpi),0
  1495  VSEL,R,LOC,Y,0,4*ri/(3*vpi) 
  1496  VSEL,R,LOC,Z,lt-l2/2+re1+d5,lt-l2/2-re1-d5  
  1497  CM,VD52,VOLUME  
  1498  !   
  1499  CSYS,1  
  1500  ALLSEL,ALL  
  1501  VSEL,S,LOC,X,0,re   
  1502  VSEL,R,LOC,Y,0,90   
  1503  VSEL,R,LOC,Z,lt-l2/2+re1+d5,lt-l2/2-re1-d5  
  1504  CMSEL,U,VD51,VOLUME 
  1505  CM,VD61,VOLUME  
  1506  !   
  1507  CSYS,1  
  1508  ALLSEL,ALL  
  1509  VSEL,S,LOC,X,0,re   
  1510  VSEL,R,LOC,Y,90,180 
  1511  VSEL,R,LOC,Z,lt-l2/2+re1+d5,lt-l2/2-re1-d5  
  1512  CMSEL,U,VD52,VOLUME 
  1513  CM,VD62,VOLUME  
  1514  !   
  1515  CSYS,0  
  1516  ALLSEL,ALL  
  1517  VSEL,S,LOC,X,re,d1/2
  1518  VSEL,R,LOC,Y,0,4*ri1/(3*vpi)
  1519  VSEL,R,LOC,Z,lt-l2/2+re1,lt-l2/2-re1
  1520  CM,VD7,VOLUME   
  1521  !   
  1522  CSYS,0  
  1523  ALLSEL,ALL  
  1524  VSEL,S,LOC,X,re,d1/2
  1525  VSEL,R,LOC,Y,0,re1  
  1526  VSEL,R,LOC,Z,lt-l2/2+re1,lt-l2/2-re1
  1527  CMSEL,U,VD7,VOLUME  
  1528  CM,VD8,VOLUME   
  1529  !   
  1530  CMSEL,S,VD1,VOLU
  1531  CMSEL,A,VD2,VOLU
  1532  CMSEL,A,VD3,VOLU
  1533  CMSEL,A,VD4,VOLU
  1534  CMSEL,A,VD51,VOLU   
  1535  CMSEL,A,VD52,VOLU   
  1536  CMSEL,A,VD61,VOLU   
  1537  CMSEL,A,VD62,VOLU   
  1538  CMSEL,A,VD7,VOLU
  1539  CMSEL,A,VD8,VOLU
  1540  !   
  1541  ! Dividindo volumes na galeria em volumes menores   
  1542  CMSEL,S,VD7,VOLU
  1543  CMSEL,A,VD8,VOLU
  1544  CSYS,0  
  1545  WPAVE,0,0,0 
  1546  WPAVE,re,0,l1+l2/2  
  1547  WPRO,,,90   
  1548  *DO,i,1,np1-1,1 
  1549  	WPOFFS,0,0,Lp1 
  1550  	VSBW,ALL   
  1551  *ENDDO  
  1552  !   
  1553  ! Dividindo volumes no encontro do tunel longitudinal com a galeria 
  1554  CMSEL,S,VD51,VOLU   
  1555  CMSEL,A,VD52,VOLU   
  1556  CMSEL,A,VD61,VOLU   
  1557  CMSEL,A,VD62,VOLU   
  1558  CSYS,0  
  1559  WPAVE,0,0,0 
  1560  WPCSYS,-1,0 
  1561  WPAVE,0,0,l1+l2/2   
  1562  nescgal = (d5+re1)/Lp   
  1563  *DO,i,1,nescgal-1,1 
  1564  	WPOFFS,0,0,Lp  
  1565  	VSBW,ALL   
  1566  *ENDDO  
  1567  !   
  1568  ! Refazendo os componentes de volumes da região da galeria 
  1569  CSYS,0  
  1570  ALLSEL,ALL  
  1571  VSEL,S,LOC,X,0,4*ri/(3*vpi) 
  1572  VSEL,R,LOC,Y,0,4*ri/(3*vpi) 
  1573  VSEL,R,LOC,Z,lt-l2/2+re1+d5,lt-l2/2!-re1!-d5
  1574  CM,VD51,VOLUME  
  1575  !   
  1576  CSYS,0  
  1577  ALLSEL,ALL  
  1578  VSEL,S,LOC,X,-4*ri/(3*vpi),0
  1579  VSEL,R,LOC,Y,0,4*ri/(3*vpi) 
  1580  VSEL,R,LOC,Z,lt-l2/2+re1+d5,lt-l2/2!-re1!-d5
  1581  CM,VD52,VOLUME  
  1582  !   
  1583  CSYS,1  
  1584  ALLSEL,ALL  
  1585  VSEL,S,LOC,X,0,re   
  1586  VSEL,R,LOC,Y,0,90   
  1587  VSEL,R,LOC,Z,lt-l2/2+re1+d5,lt-l2/2!-re1!-d5
  1588  CMSEL,U,VD51,VOLUME 
  1589  CM,VD61,VOLUME  
  1590  !   
  1591  CSYS,1  
  1592  ALLSEL,ALL  
  1593  VSEL,S,LOC,X,0,re   
  1594  VSEL,R,LOC,Y,90,180 
  1595  VSEL,R,LOC,Z,lt-l2/2+re1+d5,lt-l2/2!-re1!-d5
  1596  CMSEL,U,VD52,VOLUME 
  1597  CM,VD62,VOLUME  
  1598  !   
  1599  CSYS,0  
  1600  ALLSEL,ALL  
  1601  VSEL,S,LOC,X,re,d1/2
  1602  VSEL,R,LOC,Y,0,4*ri1/(3*vpi)
  1603  VSEL,R,LOC,Z,lt-l2/2+re1,lt-l2/2!-re1   
  1604  CM,VD7,VOLUME   
  1605  !   
  1606  CSYS,0  
  1607  ALLSEL,ALL  
  1608  VSEL,S,LOC,X,re,d1/2
  1609  VSEL,R,LOC,Y,0,re1  
  1610  VSEL,R,LOC,Z,lt-l2/2+re1,lt-l2/2!-re1   
  1611  CMSEL,U,VD7,VOLUME  
  1612  CM,VD8,VOLUME   
  1613  !   
  1614  CMSEL,S,VD51,VOLU   
  1615  CMSEL,A,VD52,VOLU   
  1616  CMSEL,A,VD61,VOLU   
  1617  CMSEL,A,VD62,VOLU   
  1618  CMSEL,A,VD7,VOLU
  1619  CMSEL,A,VD8,VOLU
  1620  !   
  1621  ! juntando pontos duplicados
  1622  ALLSEL,ALL  
  1623  NUMMRG,KP, , , ,LOW 
  1624  !   
  1625  ! renumerando a geometria   
  1626  NUMCMP,KP   
  1627  NUMCMP,LINE 
  1628  NUMCMP,AREA 
  1629  NUMCMP,VOLU 
  1630  !   
  1631  !************************************************************!  
  1632  !****_ 		3.9 Criando malhas 			_****!   
  1633  !************************************************************!  
  1634  !   
  1635  ! malha sweep   
  1636  MSHAPE,0,3d 
  1637  MSHKEY,1
  1638  TYPE, tipoelem  
  1639  ALLSEL,ALL  
  1640  CMSEL,S,VA5,VOLUME  
  1641  CMSEL,A,VA6,VOLUME  
  1642  VSWEEP,ALL  
  1643  !   
  1644  ! malha mapeada 
  1645  MSHAPE,0,3d ! 0 - hexaedro, 1 - tetraedro   
  1646  MSHKEY,1
  1647  TYPE, tipoelem  
  1648  ALLSEL,ALL  
  1649  CMSEL,S,VA1,VOLUME  
  1650  CMSEL,A,VA2,VOLUME  
  1651  CMSEL,A,VA3,VOLUME  
  1652  CMSEL,A,VA4,VOLUME  
  1653  CMSEL,A,VB3,VOLUME  
  1654  CMSEL,A,VB4,VOLUME  
  1655  CMSEL,A,VC3,VOLUME  
  1656  CMSEL,A,VC4,VOLUME  
  1657  CMSEL,A,VD3,VOLUME  
  1658  CMSEL,A,VD4,VOLUME  
  1659  VSWEEP,ALL  
  1660  !   
  1661  ! malha livre regiao da galeria 
  1662  MSHAPE,1,3d 
  1663  MSHKEY,0
  1664  TYPE, tipoelem1 
  1665  ALLSEL,ALL  
  1666  CMSEL,S,VD51,VOLUME 
  1667  CMSEL,A,VD52,VOLUME 
  1668  CMSEL,A,VD61,VOLUME 
  1669  CMSEL,A,VD62,VOLUME 
  1670  CMSEL,A,VD7,VOLUME  
  1671  CMSEL,A,VD8,VOLUME  
  1672  ASLV,S  
  1673  LSLA,S  
  1674  LESIZE,ALL,m4ga, , , ,1, , ,1,  
  1675  VMESH,ALL   
  1676  !   
  1677  ! PAREI AQUI
  1678  !   
  1679  ! malha livre em torno da região da galeria
  1680  MSHAPE,1,3d 
  1681  MSHKEY,0
  1682  TYPE, tipoelem1 
  1683  ALLSEL,ALL  
  1684  CMSEL,S,VD1,VOLUME  
  1685  CMSEL,A,VD2,VOLUME  
  1686  VMESH,ALL   
  1687  !   
  1688  ! Espelhando volumes e elementos da metade da galeria   
  1689  ALLSEL,ALL  
  1690  CMSEL,S,VD51,VOLUME 
  1691  CMSEL,A,VD52,VOLUME 
  1692  CMSEL,A,VD61,VOLUME 
  1693  CMSEL,A,VD62,VOLUME 
  1694  CMSEL,A,VD7,VOLUME  
  1695  CMSEL,A,VD8,VOLUME  
  1696  CMSEL,A,VD1,VOLUME  
  1697  CMSEL,A,VD2,VOLUME  
  1698  ESLV,S  
  1699  !   
  1700  ! Espelhando a malha na galeria 
  1701  WPAVE,0,0,0 
  1702  WPCSYS,-1,0 
  1703  WPAVE,d1/2,0,l1+l2/2
  1704  CSYS,4  
  1705  VSYMM,Z,all, , , ,0,0   
  1706  !   
  1707  ! junta nós repetidos e mantém a numeração mais baixa   
  1708  CSYS,0  
  1709  ALLSEL,ALL  
  1710  NUMMRG,node, , , ,LOW   
  1711  NUMCMP,ALL  
  1712  !   
  1713  ! criando os volumes da região espelhada da galeria
  1714  CSYS,0  
  1715  ALLSEL,ALL  
  1716  VSEL,S,LOC,X,re,d1/2
  1717  VSEL,R,LOC,Y,re1,d1/2   
  1718  VSEL,R,LOC,Z,lt-l2/2,lt-l2/2-re1-d5 
  1719  CM,VE1,VOLUME   
  1720  !   
  1721  CSYS,0  
  1722  ALLSEL,ALL  
  1723  VSEL,S,LOC,X,-re,-d1/2  
  1724  VSEL,R,LOC,Y,re,d1/2
  1725  VSEL,R,LOC,Z,lt-l2/2,lt-l2/2-re1-d5 
  1726  CM,VE2,VOLUME   
  1727  !   
  1728  CSYS,0  
  1729  ALLSEL,ALL  
  1730  VSEL,S,LOC,X,0,4*ri/(3*vpi) 
  1731  VSEL,R,LOC,Y,0,4*ri/(3*vpi) 
  1732  VSEL,R,LOC,Z,lt-l2/2,lt-l2/2-re1-d5 
  1733  CM,VE51,VOLUME  
  1734  !   
  1735  CSYS,0  
  1736  ALLSEL,ALL  
  1737  VSEL,S,LOC,X,-4*ri/(3*vpi),0
  1738  VSEL,R,LOC,Y,0,4*ri/(3*vpi) 
  1739  VSEL,R,LOC,Z,lt-l2/2,lt-l2/2-re1-d5 
  1740  CM,VE52,VOLUME  
  1741  !   
  1742  CSYS,1  
  1743  ALLSEL,ALL  
  1744  VSEL,S,LOC,X,0,re   
  1745  VSEL,R,LOC,Y,0,90   
  1746  VSEL,R,LOC,Z,lt-l2/2,lt-l2/2-re1-d5 
  1747  CMSEL,U,VE51,VOLUME 
  1748  CM,VE61,VOLUME  
  1749  !   
  1750  CSYS,1  
  1751  ALLSEL,ALL  
  1752  VSEL,S,LOC,X,0,re   
  1753  VSEL,R,LOC,Y,90,180 
  1754  VSEL,R,LOC,Z,lt-l2/2,lt-l2/2-re1-d5 
  1755  CMSEL,U,VE52,VOLUME 
  1756  CM,VE62,VOLUME  
  1757  !   
  1758  CSYS,0  
  1759  ALLSEL,ALL  
  1760  VSEL,S,LOC,X,re,d1/2
  1761  VSEL,R,LOC,Y,0,4*ri1/(3*vpi)
  1762  VSEL,R,LOC,Z,lt-l2/2,lt-l2/2-re1
  1763  CM,VE7,VOLUME   
  1764  !   
  1765  CSYS,0  
  1766  ALLSEL,ALL  
  1767  VSEL,S,LOC,X,re,d1/2
  1768  VSEL,R,LOC,Y,0,re1  
  1769  VSEL,R,LOC,Z,lt-l2/2,lt-l2/2-re1
  1770  CMSEL,U,VD7,VOLUME  
  1771  CM,VE8,VOLUME   
  1772  !   
  1773  ! junta nós repetidos e mantém a numeração mais baixa   
  1774  CSYS,0  
  1775  ALLSEL,ALL  
  1776  NUMMRG,KP, , , ,LOW 
  1777  NUMCMP,ALL							   
  1778  !   
  1779  ! malha sweep da região a posteriori da galeria
  1780  MSHAPE,0,3d 
  1781  MSHKEY,1
  1782  TYPE, tipoelem  
  1783  ALLSEL,ALL  
  1784  CMSEL,S,VB5,VOLUME  
  1785  CMSEL,A,VB6,VOLUME  
  1786  CMSEL,A,VC5,VOLUME  
  1787  VSWEEP,ALL  
  1788  !   
  1789  MSHAPE,0,3d 
  1790  MSHKEY,1
  1791  TYPE, tipoelem  
  1792  ALLSEL,ALL  
  1793  CMSEL,S,VC6,VOLUME  
  1794  VSWEEP,ALL  
  1795  !   
  1796  ! malha mapeada da região a posteriori da galeria  
  1797  MSHAPE,0,3d ! 0 - hexaedro, 1 - tetraedro   
  1798  MSHKEY,1
  1799  TYPE, tipoelem  
  1800  ALLSEL,ALL  
  1801  CMSEL,S,VB1,VOLUME  
  1802  CMSEL,A,VB2,VOLUME  
  1803  CMSEL,A,VC1,VOLUME  
  1804  CMSEL,A,VC2,VOLUME  
  1805  VSWEEP,ALL  
  1806  !	  
  1807  ALLSEL,ALL  
  1808  CMSEL,S,VE51,VOLUME 
  1809  CMSEL,A,VE52,VOLUME 
  1810  CMSEL,A,VE61,VOLUME 
  1811  CMSEL,A,VE62,VOLUME 
  1812  CMSEL,A,VE7,VOLUME  
  1813  CMSEL,A,VE8,VOLUME  
  1814  !   
  1815  ! junta nós repetidos e mantém a numeração mais baixa   
  1816  CSYS,0  
  1817  ALLSEL,ALL  
  1818  NUMMRG,node, , , ,LOW   
  1819  NUMCMP,ALL  
  1820  !							
  1821  !************************************************************!  
  1822  !****_ 		3.10 Grupos elementos do revestimento 	_****!  
  1823  !************************************************************!  
  1824  !   
  1825  ! gerando grupo de elementos com o revestimento do tunel longitudinal   
  1826  ALLSEL,ALL  
  1827  LOCAL,11,1,0,0,0
  1828  ESEL,ALL
  1829  ESEL,S,CENT,Z,lt,l1 
  1830  ESEL,R,CENT,X,ri,re 
  1831  ESEL,R,CENT,Y,0,180 
  1832  CM,Casca1,ELEM  
  1833  !   
  1834  ! gerando grupo de elementos com o revestimento das galerias transversais   
  1835  LOCAL,12,1,re,0,lt-l2/2,0,0,90  
  1836  VSEL,ALL
  1837  VSEL,S,LOC,Z,-esp,d1/2  
  1838  VSEL,R,LOC,X,0,re1  
  1839  VSEL,R,LOC,Y,0,180  
  1840  CM,VG1,VOLUME   
  1841  ESLV,S  
  1842  ESEL,R,CENT,Z,-re,d1/2-re   
  1843  ESEL,R,CENT,X,ri1,re1-0.001 
  1844  ESEL,R,CENT,Y,0,180 
  1845  CM,Casca2,ELEM  
  1846  !   
  1847  !   
  1848  !************************************************************!  
  1849  !****_		3.11 Alterando a cor dos elementos	_****!   
  1850  !************************************************************!  
  1851  !   
  1852  ! mudando a cor da janela   
  1853  /RGB,INDEX,100,100,100,0
  1854  /RGB,INDEX,0,0,0,15 
  1855  !   
  1856  ! região adjacente ao túnel   
  1857  ALLSEL,ALL  
  1858  CMSEL,S,VA1,VOLUME  
  1859  CMSEL,A,VA2,VOLUME  
  1860  CMSEL,A,VB1,VOLUME  
  1861  CMSEL,A,VB2,VOLUME  
  1862  CMSEL,A,VC1,VOLUME  
  1863  CMSEL,A,VC2,VOLUME  
  1864  CMSEL,A,VD1,VOLUME  
  1865  CMSEL,A,VD2,VOLUME  
  1866  CMSEL,A,VE1,VOLUME  
  1867  CMSEL,A,VE2,VOLUME  
  1868  ESLV,S  
  1869  /COLOR,ELEM,14,ALL  
  1870  !   
  1871  ! região escavada e externa
  1872  ALLSEL,ALL  
  1873  CMSEL,S,VA3,VOLUME  
  1874  CMSEL,A,VA4,VOLUME  
  1875  CMSEL,A,VA5,VOLUME  
  1876  CMSEL,A,VB3,VOLUME  
  1877  CMSEL,A,VB4,VOLUME  
  1878  CMSEL,A,VB5,VOLUME  
  1879  CMSEL,A,VC3,VOLUME  
  1880  CMSEL,A,VC4,VOLUME  
  1881  CMSEL,A,VC5,VOLUME  
  1882  CMSEL,A,VD3,VOLUME  
  1883  CMSEL,A,VD4,VOLUME  
  1884  CMSEL,A,VD51,VOLUME 
  1885  CMSEL,A,VD52,VOLUME 
  1886  CMSEL,A,VE51,VOLUME 
  1887  CMSEL,A,VE52,VOLUME 
  1888  CMSEL,A,VD7,VOLUME  
  1889  CMSEL,A,VE7,VOLUME  
  1890  ESLV,S  
  1891  /COLOR,ELEM,13,ALL  
  1892  !   
  1893  ! região da casca do túnel longitudinal   
  1894  ALLSEL,ALL  
  1895  CMSEL,S,Casca1,ELEM 
  1896  /COLOR,ELEM,6,ALL   
  1897  !   
  1898  ! região da casca da galeria transversal   
  1899  ALLSEL,ALL  
  1900  CMSEL,S,Casca2,ELEM 
  1901  /COLOR,ELEM,12,ALL  
  1902  !   
  1903  ! plotar elementos da casca 
  1904  CMSEL,S,Casca1,ELEM 
  1905  CMSEL,A,Casca2,ELEM 
  1906  EPLOT   
  1907  !   
  1908  !************************************************************!  
  1909  !****_ 		3.12 Condições de contorno		_****!   
  1910  !************************************************************!  
  1911  CSYS,0  
  1912  ! aplica tensões iniciais  
  1913  ALLSEL,ALL  
  1914  INISTATE, DEFINE,,,,,-prx,-pry,-prz,0,0,0   
  1915  !   
  1916  !Aplica condição de simetria na face direita do modelo
  1917  LOCAL,11,0,0,0,0
  1918  ALLSEL,ALL  
  1919  ASEL,S,LOC,X,d1/2,d1/2  
  1920  DA,ALL,SYMM 
  1921  !   
  1922  ! Aplica condições de simetria na face de baixo do modelo 
  1923  LOCAL,11,0,0,0,0
  1924  ALLSEL,ALL  
  1925  ASEL,S,LOC,Y,0,0
  1926  DA,ALL,SYMM 
  1927  !   
  1928  !Deslocamento zero em Z, face frontal   
  1929  LOCAL,11,0,0,0,0
  1930  ALLSEL,ALL  
  1931  ASEL,S,LOC,Z,lt,lt  
  1932  DA,ALL,UZ,0 
  1933  !   
  1934  ! Aplica pressão na face superior  
  1935  LOCAL,11,0,0,0,0
  1936  ALLSEL,ALL  
  1937  ASEL,S,LOC,Y,d3,d3  
  1938  ASEL,U,ACCA,
  1939  SFA,ALL,1,PRES,pry  
  1940  !   
  1941  ! Aplica pressão na face esquerda do modelo
  1942  LOCAL,11,0,0,0,0
  1943  ALLSEL,ALL  
  1944  ASEL,S,LOC,X,-d4,-d4
  1945  ASEL,U,ACCA,
  1946  SFA,ALL,1,PRES,prx  
  1947  !   
  1948  ! Aplica pressão na face do fundo  
  1949  LOCAL,11,0,0,0,0
  1950  ALLSEL,ALL  
  1951  ASEL,S,LOC,z,0,0
  1952  ASEL,U,ACCA,
  1953  SFA,ALL,1,PRES,prz  
  1954  !   
  1955  !************************************************************!  
  1956  !****_ 		3.13 Criando elementos do revestimento	_****!  
  1957  !************************************************************!  
  1958  ! Obs: esses elementos ficam sobrepostos ao do solo. Durante
  1959  ! a análise, conforme vai desligando os elementos do   
  1960  ! macicço vai-se ligando os do resvestimento, se houver.   
  1961  !   
  1962  *IF,matrev,NE,0,THEN
  1963  	CMSEL,S,Casca1,ELEM
  1964  	EGEN,2,0,ALL,ALL,1,1,,,,0,0,0  
  1965  	ESEL,ALL   
  1966  	NUMMRG,NODE, , , ,LOW  
  1967  	ESEL,MAT,2 
  1968  	CM,Revestimento1,ELEM  
  1969  *ENDIF  
  1970  !   
  1971  *IF,matrev,NE,0,THEN
  1972  	CMSEL,S,Casca2,ELEM
  1973  	EGEN,2,0,ALL,ALL,1,1,,,,0,0,0  
  1974  	ESEL,ALL   
  1975  	NUMMRG,NODE, , , ,LOW  
  1976  	ESEL,MAT,2 
  1977  	CMSEL,U,Revestimento1,ELEM 
  1978  	CM,Revestimento2,ELEM  
  1979  *ENDIF  
  1980  !   
  1981  !************************************************************!  
  1982  !****_ 		3.14 Grupos Esc-rev tunel longitudinal 	_****! 
  1983  !************************************************************!  
  1984  !   
  1985  ! Primeira escavação  
  1986  i = 1   
  1987  LOCAL,11,1,0,0,lt,0,0,180,0 
  1988  ESEL,ALL
  1989  fi=0
  1990  ff=npi*Lp   
  1991  ESEL,S,CENT,Z,fi,ff 
  1992  ESEL,R,CENT,X,0,re  
  1993  ESEL,R,CENT,Y,0,180 
  1994  CM,Lesc %i%,ELEM
  1995  CMSEL,S,Lesc %i%,ELEM   
  1996  !   
  1997  ! Proximas escavações e resvestimentos
  1998  *DO,i,2,nesc,1  
  1999  	! criando grupos com os elementos escavados do passo i 
  2000  	fi=ff  
  2001  	ff=(i-1)*Lp+npi*lp 
  2002  	ESEL,S,CENT,Z,fi,ff
  2003  	ESEL,R,CENT,X,0,re 
  2004  	ESEL,R,CENT,Y,0,180
  2005  	CM,Lesc %i%,ELEM   
  2006  	CMSEL,S,Lesc %i%,ELEM  
  2007  	!  
  2008  	*IF,matrev,NE,0,THEN   
  2009  		! criando grupos com os elementos revestidos do passo i   
  2010  		*IF,i,EQ,2,THEN   
  2011  			fi=0 
  2012  		*ELSE 
  2013  			fi=npi*lp+(i-2)*lp-(lp+d0)   
  2014  		*ENDIF
  2015  		ff = (i-1)*lp+npi*lp-(lp+d0)  
  2016  		ESEL,ALL  
  2017  		ESEL,S,CENT,Z,fi,ff   
  2018  		ESEL,R,CENT,X,ri,re   
  2019  		ESEL,R,CENT,Y,0,180   
  2020  		ESEL,R,MAT,,2 
  2021  		MPCHG,i,ALL   
  2022  		CM,Lrev %i-1%,ELEM
  2023  		CMSEL,S,Lrev %i-1%,ELEM   
  2024  	*ENDIF 
  2025  	!  
  2026  	! revestindo o ultimo trecho   
  2027  	*IF,i,EQ,nesc,THEN 
  2028  		*IF,matrev,NE,0,THEN  
  2029  			*IF,revested0,EQ,1,THEN  
  2030  				fi=l2-lp-d0 
  2031  				ff=l2   
  2032  				ESEL,S,CENT,Z,fi,ff 
  2033  				ESEL,R,CENT,X,ri,re 
  2034  				ESEL,R,CENT,Y,0,180 
  2035  				ESEL,R,MAT,,2   
  2036  				MPCHG,i,ALL 
  2037  				CM,Lrev %i%,ELEM
  2038  				CMSEL,S,Lrev %i%,ELEM   
  2039  			*ENDIF   
  2040  			*IF,revesteface,EQ,1,THEN
  2041  				fi=l2   
  2042  				ff=l2+(lp)  
  2043  				ESEL,ALL
  2044  				ESEL,S,CENT,Z,fi,ff 
  2045  				ESEL,R,CENT,X,0,re  
  2046  				ESEL,R,CENT,Y,0,180 
  2047  				CM,soloface,ELEM
  2048  				CMSEL,S,soloface,ELEM   
  2049  				!   
  2050  				fi=l2   
  2051  				ff=l2+lp
  2052  				ESEL,ALL
  2053  				ESEL,S,CENT,Z,fi,ff 
  2054  				ESEL,R,CENT,X,0,re  
  2055  				ESEL,R,CENT,Y,0,180 
  2056  				EGEN,2,0,all,all,1,1,,,,0,0,0   
  2057  				NUMMRG,node, , , ,LOW   
  2058  				ESEL,R,MAT,,2   
  2059  				MPCHG,i,ALL 
  2060  				CM,Lrevface,ELEM
  2061  				CMSEL,S,Lrevface,ELEM   
  2062  			*ENDIF   
  2063  		*ENDIF
  2064  	*ENDIF 
  2065  *ENDDO  
  2066  !   
  2067  ! criando grupo de elementos escavados  
  2068  ESEL,S,CENT,Z,0,l2  
  2069  ESEL,R,CENT,X,0,re  
  2070  ESEL,R,CENT,Y,0,180 
  2071  CM,esctotallongitudinal,ELEM
  2072  CSYS,0  
  2073  !   
  2074  !********************************************************************************************!  
[...]
 Some entities requested in the *VGET were undefined.                    

 *** WARNING ***                         CP =   63021.875   TIME= 13:59:31
 Some entities requested in the *VGET were undefined.                    

 *** WARNING ***                         CP =   63021.875   TIME= 13:59:31
 Some entities requested in the *VGET were undefined.                    

 *** WARNING ***                         CP =   63022.859   TIME= 13:59:32
 Some entities requested in the *VGET were undefined.                    

 *** WARNING ***                         CP =   63022.859   TIME= 13:59:32
 Some entities requested in the *VGET were undefined.                    

 *** WARNING ***                         CP =   63023.844   TIME= 13:59:33
 Some entities requested in the *VGET were undefined.                    

 *** WARNING ***                         CP =   63023.844   TIME= 13:59:33
 Some entities requested in the *VGET were undefined.                    

 *** WARNING ***                         CP =   63024.828   TIME= 13:59:34
 Some entities requested in the *VGET were undefined.                    

 *** WARNING ***                         CP =   63024.828   TIME= 13:59:34
 Some entities requested in the *VGET were undefined.                    

 *** WARNING ***                         CP =   63025.812   TIME= 13:59:35
 Some entities requested in the *VGET were undefined.                    

 *** WARNING ***                         CP =   63025.812   TIME= 13:59:35
 Some entities requested in the *VGET were undefined.                    

 *** WARNING ***                         CP =   63026.781   TIME= 13:59:36
 Some entities requested in the *VGET were undefined.                    

 *** WARNING ***                         CP =   63026.781   TIME= 13:59:36
 Some entities requested in the *VGET were undefined.                    

 *** WARNING ***                         CP =   63027.766   TIME= 13:59:37
 Some entities requested in the *VGET were undefined.                    

 *** WARNING ***                         CP =   63027.766   TIME= 13:59:37
 Some entities requested in the *VGET were undefined.                    

 *** WARNING ***                         CP =   63028.766   TIME= 13:59:38
 Some entities requested in the *VGET were undefined.                    

 *** WARNING ***                         CP =   63028.766   TIME= 13:59:38
 Some entities requested in the *VGET were undefined.                    

 *** WARNING ***                         CP =   63029.750   TIME= 13:59:39
 Some entities requested in the *VGET were undefined.                    

 *** WARNING ***                         CP =   63029.750   TIME= 13:59:39
 Some entities requested in the *VGET were undefined.                    

 *** WARNING ***                         CP =   63030.719   TIME= 13:59:40
 Some entities requested in the *VGET were undefined.                    

 *** WARNING ***                         CP =   63030.719   TIME= 13:59:40
 Some entities requested in the *VGET were undefined.                    

 *** WARNING ***                         CP =   63031.688   TIME= 13:59:41
 Some entities requested in the *VGET were undefined.                    

 *** WARNING ***                         CP =   63031.688   TIME= 13:59:41
 Some entities requested in the *VGET were undefined.                    

 *** WARNING ***                         CP =   63032.672   TIME= 13:59:42
 Some entities requested in the *VGET were undefined.                    

 *** WARNING ***                         CP =   63032.672   TIME= 13:59:42
 Some entities requested in the *VGET were undefined.                    

 *** WARNING ***                         CP =   63033.625   TIME= 13:59:43
 Some entities requested in the *VGET were undefined.                    

 *** WARNING ***                         CP =   63033.625   TIME= 13:59:43
 Some entities requested in the *VGET were undefined.                    

 *** WARNING ***                         CP =   63034.578   TIME= 13:59:44
 Some entities requested in the *VGET were undefined.                    

 *** WARNING ***                         CP =   63034.578   TIME= 13:59:44
 Some entities requested in the *VGET were undefined.                    

 *** WARNING ***                         CP =   63035.531   TIME= 13:59:45
 Some entities requested in the *VGET were undefined.                    

 *** WARNING ***                         CP =   63035.531   TIME= 13:59:45
 Some entities requested in the *VGET were undefined.                    

 *** WARNING ***                         CP =   63036.484   TIME= 13:59:46
 Some entities requested in the *VGET were undefined.                    

 *** WARNING ***                         CP =   63036.484   TIME= 13:59:46
 Some entities requested in the *VGET were undefined.                    

 *** WARNING ***                         CP =   63037.438   TIME= 13:59:47
 Some entities requested in the *VGET were undefined.                    

 *** WARNING ***                         CP =   63037.438   TIME= 13:59:47
 Some entities requested in the *VGET were undefined.                    

 *** WARNING ***                         CP =   63038.391   TIME= 13:59:48
 Some entities requested in the *VGET were undefined.                    

 *** WARNING ***                         CP =   63038.391   TIME= 13:59:48
 Some entities requested in the *VGET were undefined.                    

 *** WARNING ***                         CP =   63039.344   TIME= 13:59:49
 Some entities requested in the *VGET were undefined.                    

 *** WARNING ***                         CP =   63039.344   TIME= 13:59:49
 Some entities requested in the *VGET were undefined.                    

 *** WARNING ***                         CP =   63040.281   TIME= 13:59:50
 Some entities requested in the *VGET were undefined.                    

 *** WARNING ***                         CP =   63040.281   TIME= 13:59:50
 Some entities requested in the *VGET were undefined.                    

 *** WARNING ***                         CP =   63041.234   TIME= 13:59:51
 Some entities requested in the *VGET were undefined.                    

 *** WARNING ***                         CP =   63041.234   TIME= 13:59:51
 Some entities requested in the *VGET were undefined.                    

 ARRAY SORT OPERATION  RESULT ORDER VECTOR= ORDER           
  ARRAY NAME= convergencex    
  SORT VECTOR= convergencex(1,2
 MATRIX SIZE=      32 ROWS  BY      100 COLUMNS

 ARRAY SORT OPERATION  RESULT ORDER VECTOR= ORDER           
  ARRAY NAME= convergencey    
  SORT VECTOR= convergencey(1,2
 MATRIX SIZE=      32 ROWS  BY      100 COLUMNS

 ARRAY SORT OPERATION  RESULT ORDER VECTOR= ORDER           
  ARRAY NAME= stressx         
  SORT VECTOR= stressx(1,2)    
 MATRIX SIZE=      32 ROWS  BY      100 COLUMNS

 ARRAY SORT OPERATION  RESULT ORDER VECTOR= ORDER           
  ARRAY NAME= stressy         
  SORT VECTOR= stressy(1,2)    
 MATRIX SIZE=      32 ROWS  BY      100 COLUMNS

 VECTOR PARAMETER OPERATION *VSCFUN 
  UXMAXIMOFINAL = MAX  convergencex(1,2
 VECTOR LENGTH=      32
 RESULT= 0.87107    

 VECTOR PARAMETER OPERATION *VSCFUN 
  UYMAXIMOFINAL = MAX  convergencey(1,2
 VECTOR LENGTH=      32
 RESULT= 0.11434    

 VECTOR PARAMETER OPERATION *VSCFUN 
  SXMAXIMOFINAL = MAX  stressx(1,2+nana
 VECTOR LENGTH=      32
 RESULT=  0.0000    

 VECTOR PARAMETER OPERATION *VSCFUN 
  SXMINIMOFINAL = MIN  stressx(1,2+nana
 VECTOR LENGTH=      32
 RESULT= -29.988    

 VECTOR PARAMETER OPERATION *VSCFUN 
  SYMAXIMOFINAL = MAX  stressy(1,2+nana
 VECTOR LENGTH=      32
 RESULT=  0.0000    

 VECTOR PARAMETER OPERATION *VSCFUN 
  SYMINIMOFINAL = MIN  stressy(1,2+nana
 VECTOR LENGTH=      32
 RESULT= -59.220    

 RED=100% GREEN=100% BLUE=100%
  for color index  0.

 RED=0% GREEN=0% BLUE=0%
  for color index 15.

 X AXIS LABEL = y                               

 Y AXIS LABEL = Ux=-ux(r,theta=90)/Re (%)       
 CURVE X RANGE SET FROM DEFAULT VALUES
 ALL CURVE Y RANGES SET FROM DEFAULT VALUES

 NUMBER OF Y-AXIS DIVISIONS FOR GRAPHS =20

 NUMBER OF X-AXIS DIVISIONS FOR GRAPHS =10

 DIG1 GRAPH LABEL PRECISION =  3

 CURV GRAPH CURVE LINE THICKNESS =  0
 INFO LEGEND DISPLAY = ON  

 ERASE OPTION SET

 /SHOW SWITCH PLOTS TO  JPEG        - RASTER MODE.

 *DO LOOP ON PARAMETER= I FROM  1.0000     TO  98.000     BY  1.0000    

 *IF  i                                 ( =   1.00000     )  EQ  
      nanalises                         ( =   98.0000     )  THEN    

 *ELSEIF  i                                 ( =   1.00000     )  EQ  
          nesc+nesc1-1                      ( =   97.0000     )  THEN    

 *ELSE
 GRID CURVE COLOR    1 SET TO LIGHT-GRAY                       

 *ENDIF

 GRAPHIC DISPLAY OF MATRIX= convergencex(1,2+i)
 VECTOR FOR X AXIS= convergencex(1,2
 NUMBER OF POINTS=    32  NUMBER OF CURVES=   1

 CUMULATIVE DISPLAY NUMBER   1 WRITTEN TO FILE file012.jpg       - RASTER MODE.
 DISPLAY TITLE= 
  Re=1 matmacico=3 E1=20000 pr=%pr% matrev=0 E2=30303.3845 vp=5          

 NO ERASE OPTION SET

 *ENDDO  INDEX= I                               

 ERASE OPTION SET

 RED=100% GREEN=100% BLUE=100%
  for color index  0.

 RED=0% GREEN=0% BLUE=0%
  for color index 15.

 X AXIS LABEL = y                               

 Y AXIS LABEL = Uy=-uy(r,theta=90)/Re (%)       
 CURVE X RANGE SET FROM DEFAULT VALUES
 ALL CURVE Y RANGES SET FROM DEFAULT VALUES

 NUMBER OF Y-AXIS DIVISIONS FOR GRAPHS =20

 NUMBER OF X-AXIS DIVISIONS FOR GRAPHS =10

 DIG1 GRAPH LABEL PRECISION =  3

 CURV GRAPH CURVE LINE THICKNESS =  0
 INFO LEGEND DISPLAY = ON  

 ERASE OPTION SET

 /SHOW SWITCH PLOTS TO  JPEG        - RASTER MODE.

 *DO LOOP ON PARAMETER= I FROM  1.0000     TO  98.000     BY  1.0000    

 *IF  i                                 ( =   1.00000     )  EQ  
      nanalises                         ( =   98.0000     )  THEN    

 *ELSEIF  i                                 ( =   1.00000     )  EQ  
          nesc+nesc1-1                      ( =   97.0000     )  THEN    

 *ELSE
 GRID CURVE COLOR    1 SET TO LIGHT-GRAY                       

 *ENDIF

 GRAPHIC DISPLAY OF MATRIX= convergencey(1,2+i)
 VECTOR FOR X AXIS= convergencey(1,2
 NUMBER OF POINTS=    32  NUMBER OF CURVES=   1

 CUMULATIVE DISPLAY NUMBER   1 WRITTEN TO FILE file013.jpg       - RASTER MODE.
 DISPLAY TITLE= 
  Re=1 matmacico=3 E1=20000 pr=%pr% matrev=0 E2=30303.3845 vp=5          

 NO ERASE OPTION SET

 *ENDDO  INDEX= I                               

 ERASE OPTION SET

 RED=100% GREEN=100% BLUE=100%
  for color index  0.

 RED=0% GREEN=0% BLUE=0%
  for color index 15.

 X AXIS LABEL = y                               

 Y AXIS LABEL = Sx(r,theta=90)(MPa)             
 CURVE X RANGE SET FROM DEFAULT VALUES
 ALL CURVE Y RANGES SET FROM DEFAULT VALUES

 NUMBER OF Y-AXIS DIVISIONS FOR GRAPHS =20

 NUMBER OF X-AXIS DIVISIONS FOR GRAPHS =10

 DIG1 GRAPH LABEL PRECISION =  3

 CURV GRAPH CURVE LINE THICKNESS =  0
 INFO LEGEND DISPLAY = ON  

 ERASE OPTION SET

 /SHOW SWITCH PLOTS TO  JPEG        - RASTER MODE.

 *DO LOOP ON PARAMETER= I FROM  1.0000     TO  98.000     BY  1.0000    

 *IF  i                                 ( =   1.00000     )  EQ  
      nanalises                         ( =   98.0000     )  THEN    

 *ELSEIF  i                                 ( =   1.00000     )  EQ  
          nesc+nesc1-1                      ( =   97.0000     )  THEN    

 *ELSE
 GRID CURVE COLOR    1 SET TO LIGHT-GRAY                       

 *ENDIF

 GRAPHIC DISPLAY OF MATRIX= stressx(1,2+i)
 VECTOR FOR X AXIS= stressx(1,2)    
 NUMBER OF POINTS=    32  NUMBER OF CURVES=   1

 CUMULATIVE DISPLAY NUMBER   1 WRITTEN TO FILE file014.jpg       - RASTER MODE.
 DISPLAY TITLE= 
  Re=1 matmacico=3 E1=20000 pr=%pr% matrev=0 E2=30303.3845 vp=5          

 NO ERASE OPTION SET

 *ENDDO  INDEX= I                               

 ERASE OPTION SET

 RED=100% GREEN=100% BLUE=100%
  for color index  0.

 RED=0% GREEN=0% BLUE=0%
  for color index 15.

 X AXIS LABEL = y                               

 Y AXIS LABEL = Sy(r,theta=90)(MPa)             
 CURVE X RANGE SET FROM DEFAULT VALUES
 ALL CURVE Y RANGES SET FROM DEFAULT VALUES

 NUMBER OF Y-AXIS DIVISIONS FOR GRAPHS =20

 NUMBER OF X-AXIS DIVISIONS FOR GRAPHS =10

 DIG1 GRAPH LABEL PRECISION =  3

 CURV GRAPH CURVE LINE THICKNESS =  0
 INFO LEGEND DISPLAY = ON  

 ERASE OPTION SET

 /SHOW SWITCH PLOTS TO  JPEG        - RASTER MODE.

 *DO LOOP ON PARAMETER= I FROM  1.0000     TO  98.000     BY  1.0000    

 *IF  i                                 ( =   1.00000     )  EQ  
      nanalises                         ( =   98.0000     )  THEN    

 *ELSEIF  i                                 ( =   1.00000     )  EQ  
          nesc+nesc1-1                      ( =   97.0000     )  THEN    

 *ELSE
 GRID CURVE COLOR    1 SET TO LIGHT-GRAY                       

 *ENDIF

 GRAPHIC DISPLAY OF MATRIX= stressy(1,2+i)
 VECTOR FOR X AXIS= stressy(1,2)    
 NUMBER OF POINTS=    32  NUMBER OF CURVES=   1

 CUMULATIVE DISPLAY NUMBER   1 WRITTEN TO FILE file015.jpg       - RASTER MODE.
 DISPLAY TITLE= 
  Re=1 matmacico=3 E1=20000 pr=%pr% matrev=0 E2=30303.3845 vp=5          

 NO ERASE OPTION SET

 *ENDDO  INDEX= I                               

 ERASE OPTION SET

 START CREATE BY COPY FROM INPUT TO  ansuitmp

 END FILE CREATE

 /INPUT FILE= ansuitmp  LINE=       0

 MATRIX WRITE OPERATION  *MWRITE 
  convergencex WRITE TO FILE convergencex_zf_90.txt
 LOOP DIRECTIONS=JIK   COUNTS=     100      32       1       1       1
 FORMAT=(1000(E10.4,3X))                                                      

 START CREATE BY COPY FROM INPUT TO  ansuitmp

 END FILE CREATE

 /INPUT FILE= ansuitmp  LINE=       0

 MATRIX WRITE OPERATION  *MWRITE 
  convergencey WRITE TO FILE convergencey_zf_90.txt
 LOOP DIRECTIONS=JIK   COUNTS=     100      32       1       1       1
 FORMAT=(1000(E10.4,3X))                                                      

 START CREATE BY COPY FROM INPUT TO  ansuitmp

 END FILE CREATE

 /INPUT FILE= ansuitmp  LINE=       0

 MATRIX WRITE OPERATION  *MWRITE 
  stressx WRITE TO FILE stressx_zf_90.txt
 LOOP DIRECTIONS=JIK   COUNTS=     100      32       1       1       1
 FORMAT=(1000(E10.4,3X))                                                      

 START CREATE BY COPY FROM INPUT TO  ansuitmp

 END FILE CREATE

 /INPUT FILE= ansuitmp  LINE=       0

 MATRIX WRITE OPERATION  *MWRITE 
  stressy WRITE TO FILE stressy_zf_90.txt
 LOOP DIRECTIONS=JIK   COUNTS=     100      32       1       1       1
 FORMAT=(1000(E10.4,3X))                                                      

 *** NOTE ***                            CP =   63043.719   TIME= 14:00:03
 Write parameters to file= parametros.txt.                               

 *** NOTE ***                            CP =   63043.719   TIME= 14:00:03
 Parameters written.  Lines= 164.                                        

 ***** END OF INPUT ENCOUNTERED *****


 NUMBER OF WARNING MESSAGES ENCOUNTERED=        473
 NUMBER OF ERROR   MESSAGES ENCOUNTERED=          0



 ***** PROBLEM TERMINATED BY INDICATED ERROR(S) OR BY END OF INPUT DATA *****

 *** WARNING ***                         CP =   63045.219   TIME= 14:00:03
 During this session a solution was performed using 12 CPU cores in      
 shared-memory parallel (SMP) mode (-np 12).  It is strongly             
 recommended to use distributed memory parallel (DMP) mode instead       
 (-dis -np 12).  DMP mode typically outperforms SMP mode, even when      
 running on a single system.  For more information, see the ANSYS        
 Parallel Processing Guide in the ANSYS Help system.                     

+--------------------- A N S Y S   S T A T I S T I C S ------------------------+

Release: 2021 R1            Build: 21.1       Update: UP20201109   Platform: WINDOWS x64 
Date Run: 04/17/2024   Time: 14:00     Process ID: 21844
Operating System: Windows 10  (Build: 19045)

Processor Model: AMD Ryzen 9 3900X 12-Core Processor

Compiler: Intel(R) FORTRAN Compiler Version 19.0.0  (Build: 20190206)
          Intel(R) C/C++ Compiler Version 19.0.0  (Build: 20190206)
          Intel(R) Math Kernel Library Version 2020.0.0 Product Build 20191125

Number of machines requested            :    1
Total number of cores available         :   24
Number of physical cores available      :   12
Number of processes requested           :    1
Number of threads per process requested :   12
Total number of cores requested         :   12 (Shared Memory Parallel)                    

GPU Acceleration: Not Requested

Job Name: file
Input File: D:\GUO_ETAL\MA\MA3_MC\Script_3D_DUPLO_2023.txt
Working Directory: D:\GUO_ETAL\MA\MA3_MC

Total CPU time for main thread                    :     6350.7 seconds
Total CPU time summed for all threads             :    63045.0 seconds

Elapsed time spent obtaining a license            :        1.1 seconds
Elapsed time spent pre-processing model (/PREP7)  :       10.3 seconds
Elapsed time spent solution - preprocessing       :       91.9 seconds
Elapsed time spent computing solution             :     5643.7 seconds
Elapsed time spent solution - postprocessing      :        0.0 seconds
Elapsed time spent post-processing model (/POST1) :        0.0 seconds
 
Equation solver used                              :            Sparse (symmetric)
Equation solver computational rate                :      157.7 Gflops
Equation solver effective I/O rate                :       24.8 GB/sec

Maximum total memory used                         :     6006.0 MB
Maximum total memory allocated                    :     7776.0 MB
Total physical memory available                   :         32 GB

Total amount of I/O written to disk               :      652.0 GB
Total amount of I/O read from disk                :      837.9 GB

+------------------ E N D   A N S Y S   S T A T I S T I C S -------------------+


 *---------------------------------------------------------------------------*
 |                                                                           |
 |                            ANSYS RUN COMPLETED                            |
 |                                                                           |
 |---------------------------------------------------------------------------|
 |                                                                           |
 | Ansys 2021 R1               Build 21.1         UP20201109     WINDOWS x64 |
 |                                                                           |
 |---------------------------------------------------------------------------|
 |                                                                           |
 | Database Requested(-db)  1024 MB    Scratch Memory Requested      1024 MB |
 | Maximum Database Used    1373 MB    Maximum Scratch Memory Used   4633 MB |
 |                                                                           |
 |---------------------------------------------------------------------------|
 |                                                                           |
 |        CP Time      (sec) =      63045.031       Time  =  14:00:03        |
 |        Elapsed Time (sec) =       6514.000       Date  =  04/17/2024      |
 |                                                                           |
 *---------------------------------------------------------------------------*
