
 ANSYS Mechanical Enterprise                       


 *------------------------------------------------------------------*
 |                                                                  |
 |   W E L C O M E   T O   T H E   A N S Y S (R)  P R O G R A M     |
 |                                                                  |
 *------------------------------------------------------------------*




 ***************************************************************
 *            ANSYS 2021 R1          LEGAL NOTICES             *
 ***************************************************************
 *                                                             *
 * Copyright 1971-2021 ANSYS, Inc.  All rights reserved.       *
 * Unauthorized use, distribution or duplication is            *
 * prohibited.                                                 *
 *                                                             *
 * Ansys is a registered trademark of ANSYS, Inc. or its       *
 * subsidiaries in the United States or other countries.       *
 * See the ANSYS, Inc. online documentation or the ANSYS, Inc. *
 * documentation CD or online help for the complete Legal      *
 * Notice.                                                     *
 *                                                             *
 ***************************************************************
 *                                                             *
 * THIS ANSYS SOFTWARE PRODUCT AND PROGRAM DOCUMENTATION       *
 * INCLUDE TRADE SECRETS AND CONFIDENTIAL AND PROPRIETARY      *
 * PRODUCTS OF ANSYS, INC., ITS SUBSIDIARIES, OR LICENSORS.    *
 * The software products and documentation are furnished by    *
 * ANSYS, Inc. or its subsidiaries under a software license    *
 * agreement that contains provisions concerning               *
 * non-disclosure, copying, length and nature of use,          *
 * compliance with exporting laws, warranties, disclaimers,    *
 * limitations of liability, and remedies, and other           *
 * provisions.  The software products and documentation may be *
 * used, disclosed, transferred, or copied only in accordance  *
 * with the terms and conditions of that software license      *
 * agreement.                                                  *
 *                                                             *
 * ANSYS, Inc. is a UL registered                              *
 * ISO 9001:2015 company.                                      *
 *                                                             *
 ***************************************************************
 *                                                             *
 * This product is subject to U.S. laws governing export and   *
 * re-export.                                                  *
 *                                                             *
 * For U.S. Government users, except as specifically granted   *
 * by the ANSYS, Inc. software license agreement, the use,     *
 * duplication, or disclosure by the United States Government  *
 * is subject to restrictions stated in the ANSYS, Inc.        *
 * software license agreement and FAR 12.212 (for non-DOD      *
 * licenses).                                                  *
 *                                                             *
 ***************************************************************

 2021 R1 
     
 Point Releases and Patches installed:   
     
 ANSYS, Inc. Products 2021 R1
 SpaceClaim 2021 R1  
 Discovery 2021 R1   
 ANSYS Sherlock 2021 R1  
 Autodyn 2021 R1 
 LS-DYNA 2021 R1 
 CFX (includes CFD-Post) 2021 R1 
 Chemkin 2021 R1 
 EnSight 2021 R1 
 FENSAP-ICE 2021 R1  
 Fluent (includes CFD-Post) 2021 R1  
 Forte (includes EnSight) 2021 R1
 Polyflow (includes CFD-Post) 2021 R1
 TurboGrid 2021 R1   
 ICEM CFD 2021 R1
 Aqwa 2021 R1
 SPEOS 2021 R1   
 Customization Files for User Programmable Features 2021 R1  
 Mechanical Products 2021 R1 
 Additive 2021 R1
 Icepak (includes CFD-Post) 2021 R1  
 ACIS Geometry Interface 2021 R1 
 AutoCAD Geometry Interface 2021 R1  
 Catia, Version 4 Geometry Interface 2021 R1 
 Catia, Version 5 Geometry Interface 2021 R1 
 Catia, Version 6 Geometry Interface 2021 R1 
 Creo Elements/Direct Modeling Geometry Interface 2021 R1
 Creo Parametric Geometry Interface 2021 R1  
 Inventor Geometry Interface 2021 R1 
 JTOpen Geometry Interface 2021 R1   
 NX Geometry Interface 2021 R1   
 Parasolid Geometry Interface  2021 R1   
 Solid Edge Geometry Interface 2021 R1   
 SOLIDWORKS Geometry Interface 2021 R1   
 ANSYS, Inc. License Manager 2021 R1 


          *****  ANSYS COMMAND LINE ARGUMENTS  *****
  INITIAL JOBNAME              = file                                                                                                                                                                                                                                                    
  BATCH MODE REQUESTED (-b)    = LIST
  INPUT FILE COPY MODE (-c)    = COPY
  SHARED MEMORY PARALLEL REQUESTED
    SINGLE PROCESS WITH  12 THREADS REQUESTED
    TOTAL OF    12 CORES REQUESTED
  INPUT FILE NAME              = E:\GUO_ETAL\AXI_MA_INSC_C30_FI30_D1_5_SIGMAV_SIGMAH_30\Script_AXI_2023.txt
  OUTPUT FILE NAME             = E:\GUO_ETAL\AXI_MA_INSC_C30_FI30_D1_5_SIGMAV_SIGMAH_30\file.out
  START-UP FILE MODE           = READ  
  STOP FILE MODE               = READ  
  LANGUAGE                     = en-us               
  INITIAL DIRECTORY = E:\GUO_ETAL\AXI_MA_INSC_C30_FI30_D1_5_SIGMAV_SIGMAH_30

 User Link path (ANS_USER_PATH): C:\usermat                                                                                                                                                                                                                                              

 RELEASE= 2021 R1              BUILD= 21.1      UP20201109   VERSION=WINDOWS x64 
 CURRENT JOBNAME=file  14:52:50  APR 30, 2024 CP=      0.250
 Note - This ANSYS version was linked by Licensee
     1  !************************************************************!  
     2  !** SCRIPT TUNEL AXISSIMÉTRICO                             **! 
     3  !** Versão: 2023.8                                         **! 
     4  !**                                                        **!  
     5  !** Objetivo: faz análise da convergência de tuneis        **!
     6  !**           profundos (PROFUNDIDADE>10R) com seção       **!
     7  !**           circular considerando modelo axissimétrico.  **! 
     8  !**                                                        **!  
     9  !** Programador: Felipe Quevedo e Carlos Alberto           **!  
    10  !** Inicio     : (01/04/2016)                              **!  
    11  !** Situação   : Em teste                           	   **!   
    12  !** Unidades   :[F/A, L, t] = MPa,m,dia			   **!
    13  !**                                                        **!  
    14  !************************************************************!  
    15  !   
    16  !************************************************************!  
    17  !****_ 1. INICIALIZANDO O ANSYS 		        _****!
    18  !************************************************************!  
    19  FINISH  
    20  /CLEAR,NOSTART  
    21  !   
    22  !************************************************************!  
    23  !****_ 2. DADOS DE ENTRADA DO PROBLEMA 		        _****! 
    24  !************************************************************!  
    25  !   
    26  ! Nessa seção define-se todos os dados de entrada necessarios 
    27  !   
    28  !************************************************************!  
    29  !****_ 		2.1 Parâmetros geométricos		_****!   
    30  !************************************************************!  
    31  Re 		= 1 		! [m] raio da interface entre o túnel e o maciço   
    32  esp		= 0.1		! [m] espessura do revestimento 
    33  Lp		= 1/3*Re	! [m] comprimento do passo de escavação  
    34  nd0		= 2		! [Lp] número de passos que representam a dimensão não suportada   
    35  npi		= 3		! [Lp] número de passos escavados na primeira escavação
    36  Vp 		= 5		! [m/dia] velocidade do passo de escavação  
    37  revested0 	= 0		! 0 - não reveste ultimo d0+Lp, 1 - reveste ultimo d0+Lp   
    38  revesteface 	= 0		! 0 - não reveste a face, 1 - reveste a face 
    39  !   
    40  ! referente ao restante do domínio 
    41  l1		= 10 		! [Re] comprimento não escavado 
    42  l2		= 130		! [Lp] comprimento do trecho escavado
    43  l3		= 20		! [Re] dimensão vertical do maciço  
    44  !   
    45  !   
    46  !************************************************************!  
    47  !****_  	2.2 Parâmetros constitutivos do maciço 	_****!   
    48  !************************************************************! 		   
    49  ! Tipo de material do maciço (matmacico)   
    50  !   
    51  ! 	1  - elastico do ANSYS   
    52  ! 	2  - elastoplastico VM do ANSYS (BISO)   
    53  ! 	22 - elastoplastico VM do ANSYS (MISO)   
    54  !	23 - viscoplastico Perzyna VM do ANSYS
    55  !	4  - usermat3D_VM do ANSYS (BISO) 
    56  !	5  - usermat3D_elastico   
    57  !	6  - usermat3D_EP 
    58  !	7  - usermat3D_VP 
    59  !	8  - usermat3D_EPVP	  
    60  !   
    61  matmacico	= 6   
    62  !   
    63  ! Parâmetros de todos os modelos   
    64  E1 		= 20000		 ! [MPa] modulo elasticidade (1,2,22,23,4,5,6,7,8)
    65  nu1 		= 0.3		 ! [adm] coeficiente de poisson (1,2,22,23,4,5,6,7,8)  
    66  !   
    67  ! Parametros para o modelo 2, 22, 6 e 8 
    68  superficief	= 2		 ! função de escoamento: 1-DPI, 2-DPII, 3-DPIII (6,8)
    69  superficieg 	= 2		 ! função potencial: 1-DPI, 2-DPII, 3-DPIII (6,8)   
    70  fi	    	= 30		 ! [graus] angulo de atrito (0 - VM ou TR) (6,8)  
    71  psi	    	= fi		 ! [graus] angulo de dilatância (6,8)   
    72  c1	    	= 5 !*SQRT(3)/2 ! [MPa] coesão inicial (2,22,23,4,6,8) 
    73  c2	    	= 5 !*SQRT(3)/2 ! [MPa] coesão de pico (2,22,23,4,6,8) 
    74  c3	    	= 5 !*SQRT(3)/2 ! [MPa] coesão residual (22,6,8)   
    75  eps1	    	= 0.010		 ! [adm] deformação equiv. limite da zona 1 (22,6,8)   
    76  eps2	    	= 0.010		 ! [adm] deformação equiv. limite da zona 2 (22,6,8)   
    77  eps3	    	= 0.010		 ! [adm] deformação equiv. limite da zona 3 (22,6,8)   
    78  Dalg		= 0		 ! 0 - módulo elastico, 1 - módulo algoritmíco (6,8)  
    79  !   
    80  ! Parametros para o modelo 23, 7 e 8
    81  superficiefvp 	= 2		 ! função de escoamento: 1-DPI, 2-DPII, 3-DPIII (7,8) 
    82  superficiegvp 	= 2		 ! função potencial: 1-DPI, 2-DPII, 3-DPIII (7,8) 
    83  fivp          	= 0		 ! [graus] angulo de atrito (0 - VM ou TR)(7,8) 
    84  psivp         	= fivp		 ! [graus] angulo de dilatância (7,8)   
    85  cvp 	      	= 2*SQRT(3)/2	 ! [MPa] coesão viscoplastica (23,7,8)   
    86  n1	      	= 1		 ! [adm] expoente do modelo de Perzyna (23,7,8)  
    87  eta           	= 4E4 		! [dia] constante de viscosidade dinâmica (23,7,8)  
    88  f0     	      	= 1		 ! [MPa] valor de referência (23,7,8)  
    89  thetavp       	= 1		 ! 0 - totalmente explícito, 1 - semi-implicito (7,8)  
    90  !   
    91  !********************************************************************!  
    92  !****_ 		2.3 Parâmetros constitutivos do revest	_****! 
    93  !********************************************************************!  
    94  ! Tipo de material  
    95  !	0 - Sem revestimento  
    96  !	1 - Ansys_Elástico   
    97  !	2 - Usermat_Viscoelastico_CEB-MC90
    98  !   
    99  matrev 		= 0		! Tipo de material (0-SR,1-E,2-VE)
   100  !   
   101  ! Parâmetros para os modelos 1 e 2 
   102  E2 		= 30000		! [MPa] módulo de elasticidade do revestimento (matrev=1)
   103  nu2 		= 0.2    	! [adm] coeficiente de Poisson do revestimento (matrev=1,2)		   
   104  !   
   105  ! Parâmetros para o modelo 2   
   106  fck 		= 20		! [MPa] resistência característica do concreto (2)
   107  s 		= 0.2		! [adm] coef. que depende do tipo de concreto (2)
   108  ti 		= 0		! [dias] início do concreto (2)  
   109  rh 		= 70		! [%] umidade relativa do ambiente (2)   
   110  hf 		= (Re**2-(Re-esp)**2)/(Re-esp)	! [m] espessura fictítica (QUEVEDO, 2017, p. 84) (2)   
   111  ts 		= 7		! [dias] idade do concreto no início da secagem (2)  
   112  t0		= 1		! [dias] idade do concreto no início do carregamento (2)  
   113  tinf		= 3000		! [dias] tempo final da análise (2)  
   114  betasc 		= 8d0		! [adm] coeficiente que depende do tipo de cimento (2)  
   115  temperatura 	= 20		! [oC] temperatura (2)   
   116  alpha 		= 1		! [adm] efeito do tipo de cimento durante a cura (2)   
   117  ndec  		= 10		! [década] No. de pontos por decada na discretização (2)   
   118  ligafluencia 	= 1		! [un] 1 - liga fluência, 0 - desliga fluência (2) 
   119  ligaretracao 	= 1		! [un] 1 - liga retração, 0 - desliga retração (2)   
   120  ktime		= 10		! [dias] tempo da análise para saída de dados
   121  kelemid		= 2060		! [un] identificação do elemento para saída 
   122  kkDomIntPt	= 1		! [un] identificação do ponto de integração para saída 
   123  !   
   124  ! Calculo do módulo
   125  fcm 		= fck + 8 
   126  E2 		= 21500*(fcm/10)**(1/3)		    	 
   127  !************************************************************!  
   128  !****_ 		2.4 Condições de Contorno	  	_****!  
   129  !************************************************************!  
   130  pr		= 30		! [MPa] tensões iniciais e pressão hidrostáticas   
   131  !   
   132  !************************************************************!  
   133  !****_ 		2.5 Discretização do tempo nos passos	_****! 
   134  !************************************************************!  
   135  !   
   136  ! Discretização do tempo durante os passos de escavação 
   137  tp		= Lp/(Vp)	! [dias] tempo de cada passo  
   138  dtp 		= 0.5*tp	! [dias] incremento de tempo durante o cálculo  
   139  dtpmax 		= dtp		! [dias] incremento de tempo máximo
   140  !   
   141  ! Discretização do tempo nos passos após a escavação   
   142  tp2		= 100		! [dias] tempo de cada passo de solução após a escavação do túnel 
   143  np2max		= 30		! [un] número máximo de passos de solução após a escavação do túnel   
   144  dtp2		= 0.5*tp2	! [dias] incremento de tempo de cada passo  
   145  !   
   146  tp2autots	= 1		! Especifica quando usar incremento de tempo automático 
   147  !				!      -1 - O programa escolhe 
   148  !				! 	0 - não usa incremento de tempo automático (usa apenas dtp2)  
   149  !				!	1 - usa incremento de tempo automático (usa o dpt2min e dpt2max)
   150  tp2carry	= 1		! Incremento de tempo entre passos
   151  !				!	0 - usa o dtp2 como o incremento de tempo em cada passo  
   152  !				!	1 - usa o incremento de tempo do passo anterior em cada passo (se dtp2autots = 1)
   153  dtp2min		= tp2/2		! [dias] incremento mínimo de tempo de cada passo
   154  dtp2max		= tp2		! [dias] incremento máximo de tempo de cada passo				! 
   155  !   
   156  deltaumin	= 1E-8		! [adm] critério de convergência no tempo   
   157  !   
   158  !************************************************************!  
   159  !****_ 		2.6 Discretização da malha              _****!   
   160  !************************************************************!  
   161  tipoelem 	= 1		! 1 - PLANE182, 2 - PLANE183 
   162  formaelem 	= 0		! 0 - quadrilátero, 1 - triangular 
   163  formaint	= 0		! integração 0 - completa, 1 - reduzida 
   164  tipomalha	= 1		! 0 - malha livre, 1 - mapeada, 2 - mapeada se possível 
   165  nLp		= 1		! [un] numero de elementos no passo escavado  
   166  nL1 		= 15		! [un] numero de elementos trecho não escavado 
   167  mL1 		= 1/5		! [adm] taxa de crescimento
   168  nesp		= 2 		! [un] divisões na espessura do revestimento   
   169  nRi 		= 6		! [un] numero de elementos na vertical do maciço escavado   
   170  nLx 		= 20		! [un] numero de elementos acima da seção do túnel   
   171  mLx 		= 40		! [adm] taxa de crescimento 
   172  !   
   173  !************************************************************!  
   174  !****_ 		2.7 Configuração da saida de dados    	_****!
   175  !************************************************************!  
   176  iso 		= 0		! 0 - contorno padrão, 1 - isosuperficie
   177  flag1 		= 1		! 1 - saida jpg do gráfico de convergência em arquivo
   178  flag2 		= 1		! 1 - saida txt de resultados do gráfico de convergência 
   179  flag3 		= 1		! 1 - saida do gráfico de convergência na tela do Ansys  
   180  !   
   181  ! Obs: os arquivos de imagem jpg saem com o nome jobname###.jpg 
   182  !  onde ### é um inteiro que vai incrementando a partir da última 
   183  !  numeração do último arquivo plotado.  
   184  !  Os campos serão referentes ao final da análise.
   185  !   
   186  !************************************************************!  
   187  !****_ 		2.8 Configurações da solução	     	_****!  
   188  !************************************************************!  
   189  !   
   190  nr	= 2	! Tipo de Newton-Raphson 
   191  !		! 1 - INIT rigidez não é atualizada
   192  !		! 2 - FULL rigidez atualizada a cada iteração  
   193  !		! 3 - UNSYM assimétrica atualizada a cada iteração
   194  !   
   195  ! Tolerâncias durante os passos de escavação do túnel longitudinal  
   196  tolf	= 1e-6	! tolerância para o resíduo (padrão 0.005)   
   197  tolu	= 1e-4	! tolerância para o incremento de deslocamento (padrão 0.05)  
   198  !   
   199  ! Tolerâncias durante os passos após a construção do túnel 
   200  tolf2	= 1e-6	! tolerância para o resíduo  
   201  tolu2	= 1e-4	! tolerância para o incremento de deslocamento
   202  !   
   203  ! Tolerância para o incremento de deformação plástica equivalente   
   204  plslimit = 0.15 
   205  !   
   206  psc	= 1	! 1 - Ativa, 0 - desativa a opção de paralelização SMP  
   207  nlg	= 0	! 1 - Ativa, 0 - desativa a não lineariedade geométrica   
   208  soleq	= 0	! 1 - calcula o equilibrio do maciço antes de iniciar
   209  !   
   210  !************************************************************!  
   211  !****_ 		2.9 Titulo e nome dos arquivos  	_****!
   212  !************************************************************!  
   213  ! defini titulo na tela do Ansys
   214  /TITLE, Re=%Re% matmacico=%matmacico% E1=%E1% pr=%pr% matrev=%matrev% E2=%E2% Vp=%Vp%   
   215  !   
   216  ! define nome file.* para os arquivos da analise
   217  /FILNAME,file,0 
   218  !   
   219  !   
   220  !   
   221  !   
   222  !------------------FIM ENTRADA DE DADOS---------------------!   
   223  !   
   224  !   
   225  !   
   226  !   
   227  !************************************************************!  
   228  !****_ 3. PRÉ-PROCESSAMENTO 				_****! 
   229  !************************************************************!  
   230  /PREP7	! inicia módulo de pré-processamento   
   231  !   
   232  !************************************************************!  
   233  !****_ 		3.1 Calculos iniciais			_****! 
   234  !************************************************************!  
   235  ri 		= re-esp	! [m] raio da face interna do revestimento do túnel  
   236  l1		= l1*Re    	! [m] comprimento do trecho não escavado   
   237  l2		= l2*Lp		! [m] comprimento do trecho escavado   
   238  l3		= l3*Re	   	! [m] dimensão vertical do maciço 
   239  lt 		= l1+l2 	! [m] comprimento total do modelo ao longo do eixo longitudinal   
   240  d0		= nd0*lp	! [m] dimensão não suportada (multiplo do passo) 
   241  np 		= l2/Lp 	! [un] numero total passos escavados nos tuneis longitudinais 
   242  nesc		= np-npi+1	! [un] total de escavações   
   243  nl2 		= np*nlp   	! [un] numero de elementos no trecho escavado 
   244  !   
   245  ! verificando se haverá análise após a construção do túnel
   246  analise2 = 0
   247  *IF,matmacico,GT,6,OR,matrev,GT,1,THEN  
   248  	analise2 = 1   
   249  *ENDIF  
   250  *IF,matmacico,EQ,23,THEN
   251  	analise2 = 1   
   252  *ENDIF  
   253  !   
   254  !************************************************************!  
   255  !****_ 		3.2 Elementos finitos 			_****!
   256  !************************************************************!  
   257  *IF,tipoelem,EQ,1,THEN  
   258  	ET,1,PLANE182  
   259  *ELSE   
   260  	ET,1,PLANE183  
   261  *ENDIF  
   262  KEYOPT,1,1,formaint 
   263  KEYOPT,1,3,1
   264  KEYOPT,1,6,0
   265  !   
   266  !************************************************************!  
   267  !****_ 		3.3 Material do maciço 			_****!  
   268  !************************************************************!  
   269  *IF,matmacico,eq,1,then 
   270  	! Definindo o material elastico do Ansys   
   271  	MPTEMP,1,0  		 
   272  	MPDATA,EX,1,,E1	   
   273  	MPDATA,PRXY,1,,nu1 	   
   274  *ELSEIF,matmacico,eq,2,then 
   275  	! Definindo o material elastoplástico VM do Ansys bilienar
   276  	yield	    	= 2*c1			! [MPa]	tensão de escoamento  
   277  	Ep 		= 2*(c2-c1)/(eps1)	! [MPa] módulo plástico tangente 
   278  	youngt      	= Ep*E1/(E1+Ep)		! [MPa] módulo de elastoplástico tangente  
   279  	!  
   280  	MPTEMP,1,0  		 
   281  	MPDATA,EX,1,,E1	   
   282  	MPDATA,PRXY,1,,nu1 	   
   283  	TB,BISO,1,1,2, 
   284  	TBTEMP,0   
   285  	TBDATA,,yield,youngt,,,,   
   286  *ELSEIF,matmacico,eq,22,then
   287  	! Definindo o material elastoplástico VM do Ansys multilinear 
   288  	yield	    	= 2*c1			! [MPa]	tensão de escoamento  
   289  	Ep 		= 2*(c2-c1)/(eps1)	! [MPa] módulo plástico tangente 
   290  	youngt      	= Ep*E1/(E1+Ep)		! [MPa] módulo de elastoplástico tangente  
   291  	epst0		= 2*c1/E1		! [adm] deformação total no escoamento 
   292  	epst1		= 2*c2/E1 + eps1 	! [adm] deformação total na zona 1  
   293  	epst2		= 2*c2/E1 + eps2	! [adm] deformação total na zona 2	  
   294  	epst3		= 2*c3/E1 + eps3	! [adm] deformação total na zona 3   
   295  	!  
   296  	MPTEMP,1,0  		 
   297  	MPDATA,EX,1,,E1	   
   298  	MPDATA,PRXY,1,,nu1 	   
   299  	TB,MISO,1,1,5,0
   300  	TBTEMP,0   
   301  	TBPT,,epst0,2*c1   
   302  	TBPT,,epst1,2*c2   
   303  	TBPT,,epst2,2*c2   
   304  	TBPT,,epst3,2*c3   
   305  	TBPT,,0.1,2*c3 
   306  *ELSEIF,matmacico,eq,23,then
   307  	! Definindo o material viscoplastico perzyna VM do Ansys   
   308  	yieldvp	    	= 2*cvp				! [MPa]	tensão de escoamento  
   309  	youngtvp      	= 0				! [MPa] módulo de elastoplástico tangente  
   310  	gamma	      	= ((yieldvp/f0)**n1)/eta 	! [dias^-1] coeficiente Gamma do modelo de Perzyna Ansys
   311  	m  	      	= 1/n1				! [adm] coeficiente m do modelo de Perzyna do ANSYS   
   312  	!  
   313  	MPTEMP,1,0  		 
   314  	MPDATA,EX,1,,E1	   
   315  	MPDATA,PRXY,1,,nu1	
   316  	TB,BISO,1,1,2, 
   317  	TBTEMP,0   
   318  	TBDATA,,yieldvp,youngtvp,,,,   
   319  	TB,RATE,1,1,2,1
   320  	TBTEMP,0   
   321  	TBDATA,,m,gamma,,,,	   
   322  *ELSEIF,matmacico,eq,4,then 
   323  	! Definindo material usermat3D VM do Ansys 
   324  	yield	    	= 2*c1			! [MPa]	tensão de escoamento  
   325  	Ep 		= 2*(c2-c1)/(eps1)	! [MPa] módulo plástico tangente 
   326  	youngt      	= Ep*E1/(E1+Ep)		! [MPa] módulo de elastoplástico tangente  
   327  	!  
   328  	TB,USER,1,2,5  
   329  	TBTEMP,1.0 		  
   330  	TBDATA,1,matmacico,E1,nu1,yield,youngt ! modelo, E, posn, sigy, H  
   331  	TB,STATE,1,,8  
   332  *ELSEIF,matmacico,eq,5,then 
   333  	! Definindo material usermat3D_elastico
   334  	TB,USER,1,2,3  
   335  	TBTEMP,1.0 		  
   336  	TBDATA,1,matmacico,E1,nu1  
   337  	TB,STATE,1,,8	 
   338  *ELSEIF,matmacico,eq,6,then 
   339  	! Definindo material usermat3D_EP  
   340  	TB,USER,1,2,14 
   341  	TBTEMP,1.0 		  
   342  	TBDATA,1,matmacico,E1,nu1  
   343  	TBDATA,4,superficief,superficieg   
   344  	TBDATA,6,fi,psi,   
   345  	TBDATA,8,c1,c2,c3,eps1,eps2,eps3   
   346  	TBDATA,14,Dalg 
   347  	TB,STATE,1,,20	
   348  *ELSEIF,matmacico,eq,7,then 
   349  	! Definindo material usermat3D_VP  
   350  	TB,USER,1,2,13 
   351  	TBTEMP,1.0 		  
   352  	TBDATA,1,matmacico,E1,nu1  
   353  	TBDATA,4,superficiefvp,superficiegvp   
   354  	TBDATA,6,fivp,psivp,   
   355  	TBDATA,8,cvp,n1,eta,f0,thetavp	
   356  	TB,STATE,1,,20		   
   357  *ELSEIF,matmacico,eq,8,then 
   358  	! Definindo material usermat3D_EPVP
   359  	TB,USER,1,2,23 
   360  	TBTEMP,1.0 		  
   361  	TBDATA,1,matmacico,E1,nu1  
   362  	TBDATA,4,superficief,superficieg   
   363  	TBDATA,6,fi,psi,   
   364  	TBDATA,8,c1,c2,c3,eps1,eps2,eps3   
   365  	TBDATA,14,Dalg 
   366  	TBDATA,15,superficiefvp,superficiegvp  
   367  	TBDATA,17,fivp,psivp   
   368  	TBDATA,19,cvp  
   369  	TBDATA,20,n1,eta,f0
   370  	TBDATA,23,thetavp	 
   371  	TB,STATE,1,,20 
   372  *ENDIF  
   373  !   
   374  !************************************************************!  
   375  !****_ 		3.4 Material do revestimento		_****!   
   376  !************************************************************!  
   377  *IF,matrev,EQ,1,THEN
   378  	*DO,i,2,nesc,1 
   379  		MPTEMP,1,0
   380  		MPDATA,EX,i,,E2   
   381  		MPDATA,PRXY,i,,nu2
   382  	*ENDDO 
   383  *ELSEIF,matrev,EQ,2,THEN
   384  	*DO,i,2,nesc,1 
   385  		TB,USER,i,1,18
   386  		TBTEMP,1.0
   387  		TBDATA,1,9
   388  		TBDATA,2,ligafluencia,ligaretracao
   389  		TBDATA,4,npi*tp+tp*(i-2)  
   390  		TBDATA,5,ts,t0,tinf   
   391  		TBDATA,8,fck,nu2  
   392  		TBDATA,10,s,rh,hf,betasc,alpha
   393  		TBDATA,15,ndec
   394  		TBDATA,16,ktime,kelemid,kkDomIntPt
   395  		TB,STATE,i,,500   
   396  	*ENDDO 
   397  *ENDIF  
   398  !   
   399  !************************************************************!  
   400  !****_ 		3.5 Modelando o sólido			_****!   
   401  !************************************************************!  
   402  ! Definindo a vista 
   403  /VIEW,1,,,1 
   404  /ANG,1  
   405  !   
   406  ! criando pontos notaveis   
   407  K,1,0,0 
   408  K,2,0,l1
   409  K,3,0,lt
   410  K,4,ri,0
   411  K,5,ri,l1   
   412  K,6,ri,lt   
   413  K,7,re,0
   414  K,8,re,l1   
   415  K,9,re,lt   
   416  K,10,l3,0   
   417  K,11,l3,l1  
   418  K,12,l3,lt  
   419  !   
   420  ! criando linhas
   421  L,1,4   
   422  L,4,7   
   423  L,7,10  
   424  L,2,5   
   425  L,5,8   
   426  L,8,11  
   427  L,3,6   
   428  L,6,9   
   429  L,9,12  
   430  L,1,2   
   431  L,2,3   
   432  L,4,5   
   433  L,5,6   
   434  L,7,8   
   435  L,8,9   
   436  L,10,11 
   437  L,11,12 
   438  !   
   439  ! criando áreas
   440  A,1,2,5,4   
   441  A,2,3,6,5   
   442  A,4,5,8,7   
   443  A,5,6,9,8   
   444  A,7,8,11,10 
   445  A,8,9,12,11 
   446  !   
   447  ! visualizando modelo   
   448  /PNUM,KP,1  
   449  /PNUM,AREA,1
   450  /PNUM,LINE,1
   451  APLOT   
   452  !   
   453  !************************************************************!  
   454  !****_ 		3.6 Divisões para a malha nas linhas 	_****!  
   455  !************************************************************!  
   456  ! Ao longo da escavação divido de p (passo da escavação)
   457  LSEL,ALL
   458  LSEL,S,LOC,X,0,l3   
   459  LSEL,R,LOC,Y,l1+0.01,lt-0.01
   460  LESIZE,ALL, , ,nL2, , , , ,1
   461  !   
   462  ! Ao longo da não-escavação (elementos com taxa de crescimento)  
   463  LSEL,ALL
   464  LSEL,S,LOC,X,0,l3   
   465  LSEL,R,LOC,Y,0.01,l1-0.01   
   466  LESIZE,ALL, , ,nL1,mL1, , , ,1  
   467  !   
   468  ! Espessura do revestimento 
   469  LSEL,ALL
   470  LSEL,S,LOC,X,ri+0.01,re-0.01
   471  LSEL,R,LOC,Y,0,lt   
   472  LESIZE,ALL, , ,nesp, , , , ,1   
   473  !   
   474  ! Transversal solo escavado 
   475  LSEL,ALL
   476  LSEL,S,LOC,X,0,ri-0.01  
   477  LSEL,R,LOC,Y,0,lt   
   478  LESIZE,ALL, , ,nRi, , , , ,1
   479  !   
   480  ! Ao redor da escavação   
   481  LSEL,ALL
   482  LSEL,S,LOC,X,re+0.01,l3-0.01
   483  LSEL,R,LOC,Y,0,lt   
   484  LESIZE,ALL, , ,nLx,mLx, , , ,1  
   485  !   
   486  !************************************************************!  
   487  !****_ 		3.9 Criando malhas 			_****!   
   488  !************************************************************!  
   489  MSHKEY,tipomalha
   490  MSHAPE,formaelem
   491  AMESH,1 
   492  AMESH,2 
   493  AMESH,3 
   494  AMESH,4 
   495  AMESH,5 
   496  AMESH,6 
   497  EPLOT   
   498  !   
   499  !************************************************************!  
   500  !****_ 		3.10 Grupos elementos do revestimento 	_****!  
   501  !************************************************************!  
   502  !   
   503  ! gerando grupo de elementos com o revestimento do tunel
   504  ALLSEL,ALL  
   505  ESEL,S,CENT,Y,l1,lt 
   506  ESEL,R,CENT,X,ri,re 
   507  CM,Casca1,ELEM  
   508  !   
   509  !   
   510  !************************************************************!  
   511  !****_		3.11 Alterando a cor dos elementos	_****!   
   512  !************************************************************!  
   513  ALLSEL,ALL  
   514  ASEL,S,AREA, ,1 
   515  ASEL,A,AREA, ,3 
   516  ASEL,A,AREA, ,5 
   517  ASEL,A,AREA, ,6 
   518  ESLA,S  
   519  /COLOR,ELEM,14,ALL  
   520  !   
   521  ALLSEL,ALL  
   522  ASEL,S,AREA, ,2 
   523  ASEL,A,AREA, ,4 
   524  ESLA,S  
   525  /COLOR,ELEM,13,ALL  
   526  !   
   527  !   
   528  ALLSEL,all  
   529  CMSEL,S,Casca1,ELEM 
   530  /COLOR,ELEM,6,ALL   
   531  !   
   532  !************************************************************!  
   533  !****_ 		3.12 Condições de contorno		_****!   
   534  !************************************************************!  
   535  ! aplica tensões iniciais  
   536  ALLSEL,ALL  
   537  INISTATE, DEFINE,,,,,-pr,-pr,-pr,0,0,0  
   538  !   
   539  ! simetria em torno do eixo Y   
   540  LSEL,ALL
   541  LSEL,S,LOC,X,0,0.01 
   542  LSEL,R,LOC,Y,0,lt   
   543  DL,ALL,,SYMM
   544  !   
   545  ! simetria no topo do modelo
   546  LSEL,ALL
   547  LSEL,S,LOC,X,0,l3   
   548  LSEL,R,LOC,Y,lt 
   549  DL,ALL,,SYMM
   550  !   
   551  ! pressão na parte de baixo do modelo  
   552  LSEL,ALL
   553  LSEL,S,LOC,X,0,l3   
   554  LSEL,R,LOC,Y,0  
   555  SFL,ALL,PRES,pr 
   556  !   
   557  ! pressão a direita do modelo  
   558  LSEL,ALL
   559  LSEL,S,LOC,X,l3 
   560  LSEL,R,LOC,Y,0,lt   
   561  SFL,ALL,PRES,pr 
   562  !   
   563  !************************************************************!  
   564  !****_ 		3.13 Criando elementos do revestimento	_****!  
   565  !************************************************************!  
   566  ! Obs: esses elementos ficam sobrepostos ao do solo. Durante
   567  !      a análise, conforme vai desligando os elementos do  
   568  !      macicço vai-se ligando os do resvestimento, se houver.  
   569  !   
   570  *IF,matrev,NE,0,THEN
   571  	CMSEL,S,Casca1,ELEM
   572  	EGEN,2,0,all,all,1,1,,,,0,0,0  
   573  	ESEL,ALL   
   574  	NUMMRG,node, , , ,LOW  
   575  	ESEL,MAT,2 
   576  	CM,Revestimento1,ELEM  
   577  *ENDIF  
   578  !   
   579  !************************************************************!  
   580  !****_ 		3.14 Grupos Esc-rev tunel  		_****!
   581  !************************************************************!  
   582  !   
   583  ! Primeira escavação  
   584  i = 1   
   585  LOCAL,11,0,0,lt,0,180,0,180,0   
   586  ESEL,ALL
   587  fi=0
   588  ff=npi*Lp   
   589  ESEL,S,CENT,Y,fi,ff 
   590  ESEL,R,CENT,X,0,re  
   591  CM,Lesc %i%,ELEM
   592  CMSEL,S,Lesc %i%,ELEM   
   593  !   
   594  ! Proximas escavações e resvestimentos
   595  *DO,i,2,nesc,1  
   596  	! criando grupos com os elementos escavados do passo i 
   597  	fi=ff  
   598  	ff=(i-1)*Lp+npi*lp 
   599  	ESEL,S,CENT,Y,fi,ff
   600  	ESEL,R,CENT,X,0,re 
   601  	CM,Lesc %i%,ELEM   
   602  	CMSEL,S,Lesc %i%,ELEM  
   603  	!  
   604  	*IF,matrev,NE,0,THEN   
   605  		! criando grupos com os elementos revestidos do passo i   
   606  		*IF,i,EQ,2,THEN   
   607  			fi=0 
   608  		*ELSE 
   609  			fi=npi*lp+(i-2)*lp-(lp+d0)   
   610  		*ENDIF
   611  		ff = (i-1)*lp+npi*lp-(lp+d0)  
   612  		ESEL,S,CENT,Y,fi,ff   
   613  		ESEL,R,CENT,X,ri,re   
   614  		ESEL,R,MAT,,2 
   615  		MPCHG,i,ALL   
   616  		CM,Lrev %i-1%,ELEM
   617  		CMSEL,S,Lrev %i-1%,ELEM   
   618  	*ENDIF 
   619  	!  
   620  	! revestindo o ultimo trecho   
   621  	*IF,i,EQ,nesc,THEN 
   622  		*IF,matrev,NE,0,THEN  
   623  			*IF,revested0,EQ,1,THEN  
   624  				fi=l2-lp-d0 
   625  				ff=l2   
   626  				ESEL,S,CENT,Y,fi,ff 
   627  				ESEL,R,CENT,X,ri,re 
   628  				ESEL,R,MAT,,2   
   629  				MPCHG,i,ALL 
   630  				CM,Lrev %i%,ELEM
   631  				CMSEL,S,Lrev %i%,ELEM   
   632  			*ENDIF   
   633  			*IF,revesteface,EQ,1,THEN
   634  				fi=l2   
   635  				ff=l2+(lp)  
   636  				ESEL,ALL
   637  				ESEL,S,CENT,Y,fi,ff 
   638  				ESEL,R,CENT,X,0,re  
   639  				CM,soloface,ELEM
   640  				CMSEL,S,soloface,ELEM   
   641  				!   
   642  				fi=l2   
   643  				ff=l2+lp
   644  				ESEL,ALL
   645  				ESEL,S,CENT,Y,fi,ff 
   646  				ESEL,R,CENT,X,0,re  
   647  				EGEN,2,0,all,all,1,1,,,,0,0,0   
   648  				NUMMRG,node, , , ,LOW   
   649  				ESEL,R,MAT,,2   
   650  				MPCHG,i,ALL 
   651  				CM,Lrevface,ELEM
   652  				CMSEL,S,Lrevface,ELEM   
   653  			*ENDIF   
   654  		*ENDIF
   655  	*ENDIF 
   656  *ENDDO  
   657  !   
   658  ! criando grupo de elementos escavados  
   659  ESEL,S,CENT,Y,0,l2  
   660  ESEL,R,CENT,X,0,re  
   661  CM,esctotal,ELEM
   662  CSYS,0  
   663  !   
   664  !************************************************************!  
   665  !****_ 4. SOLUÇÃO 					_****! 
   666  !************************************************************!  
   667  /SOL			 
   668  !   
   669  ! Configurações iniciais  
   670  *IF,nlg,eq,0,then		 
   671  	NLGEOM,OFF 
   672  *ELSEIF,nlg,eq,1,then		 
   673  	NLGEOM,ON  
   674  *ENDIF  
   675  *IF,nr,eq,1,then		  
   676  	NROPT,INIT 
   677  *ELSEIF,nr,eq,2,then		  
   678  	NROPT,FULL 
   679  *ELSEIF,nr,eq,3,then		  
   680  	NROPT,UNSYM
   681  *ENDIF	 
   682  *IF,psc,eq,0,then		 
   683  	PSCONTROL,ALL,OFF  
   684  *ELSEIF,nlg,eq,1,then		 
   685  	PSCONTROL,ALL,ON   
   686  *ENDIF  
   687  !   
   688  ! Critério do incremento de deformação equivalente plástica 
   689  CUTCONTROL,PLSLIMIT,plslimit
   690  !   
   691  ! Gravação da saida de resultados 
   692  ALLSEL,ALL  
   693  OUTRES,ESOL,LAST
   694  OUTRES,SVAR,ALL		   
   695  !   
   696  ! Salvar parâmetros
   697  PARSAV,ALL,parametros,txt   
   698  !   
   699  ! Definindo temperatura 
   700  TUNIF,temperatura   
   701  !   
   702  ! Apaga os elementos do revestimento
   703  ALLSEL,ALL  
   704  *IF,matrev,NE,0,THEN
   705  	CMSEL,S,Revestimento1,ELEM 
   706  	EKILL,ALL  
   707  	ESEL,ALL   
   708  	*IF,revesteface,EQ,1,THEN  
   709  		CMSEL,S,Lrevface,ELEM 
   710  		EKILL,ALL 
   711  	*ENDIF 
   712  *ENDIF  
   713  !   
   714  ! Verifica o equilibrio do maciço  
   715  *IF,soleq,EQ,1,THEN 
   716  	ANTYPE,0,NEW   
   717  	ESEL,ALL   
   718  	TIME,1 
   719  	DELTIM,1,,1
   720  	!CNVTOL,F,,tolf,,0.01  
   721  	!CNVTOL,U,,tolu
   722  	SOLVE  
   723  	FINISH 
   724  	!  
   725  	! Plota a solução
   726  	/POST1 
   727  	RSYS,1 
   728  	ESEL,S,LIVE
   729  	PLNSOL,U,SUM, 0,1.0
   730  	ESEL,ALL   
   731  *ENDIF  
   732  !   
   733  ! numero máximo de análises   
   734  nanalises = nesc
   735  *IF,analise2,EQ,1,THEN  
   736  	nanalises=nanalises + np2max   
   737  *ENDIF  
   738  !   
   739  ! criando a tabela com o criterio de parada do longo prazo (np2,deltau,uatual)  
   740  *IF,analise2,EQ,1,THEN  
   741  	*DIM,criterio,TABLE,nanalises,3
   742  *ENDIF  
   743  !   
   744  ! Selecionando o nó de controle da convergencia no tempo   
   745  uatual = 0  
   746  NSEL,ALL
   747  NSEL,S,LOC,X,0.999*Re,1.001*Re  
   748  NSEL,R,LOC,Y,lt,lt  
   749  *GET,nocontrole,NODE,0,NUM,MAX  
   750  ALLSEL,ALL  
   751  !   
   752  ! Solução com as escavações 
   753  /SOL
   754  *IF,matmacico,LE,1,AND,matrev,EQ,0,THEN 
   755  	!  
   756  	! Maciço elástico sem revestimento (não precisa rodar a cada escavação)   
   757  	ANTYPE,0,NEW   
   758  	!  
   759  	! primeira escavação 
   760  	i=1
   761  	CMSEL,S,Lesc %i%,ELEM  
   762  	EKILL,ALL  
   763  	ESEL,S,LIVE
   764  	EPLOT  
   765  	*DO,i,2,nesc,1 
   766  		! desligando elementos do grupo de escavação i		
   767  		CMSEL,S,Lesc %i%,ELEM 
   768  		EKILL,ALL 
   769  		ESEL,S,LIVE   
   770  		EPLOT 
   771  		! 
   772  		! ligando elementos do grupo de revestimento i-1  
   773  		*IF,matrev,NE,0,THEN  
   774  			CMSEL,S,rev %i-1%,ELEM   
   775  			EALIVE,ALL   
   776  			*IF,revested0,EQ,1,THEN  
   777  				*IF,i,EQ,nesc,THEN  
   778  					CMSEL,S,Lrev %i%,ELEM  
   779  					EALIVE,ALL 
   780  				*ENDIF  
   781  			*ENDIF   
   782  			*IF,revesteface,EQ,1,THEN
   783  				*IF,i,EQ,nesc,THEN  
   784  					CMSEL,S,Lrevface,ELEM  
   785  					EALIVE,ALL 
   786  					CMSEL,S,soloface,ELEM  
   787  					EKILL,ALL  
   788  				*ENDIF  
   789  			*ENDIF   
   790  		*ENDIF
   791  		! 
   792  		! plotando apenas os elementos ativos 
   793  		ESEL,S,LIVE   
   794  		EPLOT 
   795  	*ENDDO 
   796  	ESEL,ALL   
   797  	SAVE   
   798  	!CNVTOL,F,,tolf,,0.01  
   799  	!CNVTOL,U,,tolu
   800  	SOLVE  
   801  	FINISH 
   802  *ELSE   
   803  	!  
   804  	! Necessário fazer vários passos de escavação  
   805  	ANTYPE,0,NEW   
   806  	!  
   807  	! Primeiro passo de escavação
   808  	i=1
   809  	CMSEL,S,Lesc %i%,ELEM  
   810  	EKILL,ALL  
   811  	ESEL,S,LIVE
   812  	EPLOT  
   813  	TIME,tp*npi
   814  	DELTIM,dtp,,dtpmax 
   815  	ESEL,ALL   
   816  	!CNVTOL,F,,tolf,,0.01  
   817  	!CNVTOL,U,,tolu
   818  	SOLVE  
   819  	SAVE   
   820  	FINISH 
   821  	!  
   822  	! Mostrar solução da primeira escavação
   823  	/POST1 
   824  	RSYS,1 
   825  	ESEL,S,LIVE
   826  	PLNSOL, U,SUM, 0,1.0   
   827  	!  
   828  	! Próximos passos de escavação  
   829  	/SOL   
   830  	ANTYPE,0,RESTART   
   831  	*DO,i,2,nesc,1 
   832  		! 
   833  		! desligando elementos do grupo de escavacao i
   834  		ESEL,ALL  
   835  		CMSEL,S,Lesc %i%,ELEM 
   836  		EKILL,ALL 
   837  		ESEL,S,LIVE   
   838  		EPLOT 
   839  		! 
   840  		! ligando elementos do grupo de revestimento i-1  
   841  		*IF,matrev,NE,0,THEN  
   842  			CMSEL,S,Lrev %i-1%,ELEM  
   843  			EALIVE,ALL   
   844  			*IF,revested0,EQ,1,THEN  
   845  				*IF,i,EQ,nesc,THEN  
   846  					CMSEL,S,Lrev %i%,ELEM  
   847  					EALIVE,ALL 
   848  				*ENDIF  
   849  			*ENDIF   
   850  			*IF,revesteface,EQ,1,THEN
   851  				*IF,i,EQ,nesc,THEN  
   852  					CMSEL,S,Lrevface,ELEM  
   853  					EALIVE,ALL 
   854  					CMSEL,S,soloface,ELEM  
   855  					EKILL,ALL  
   856  				*ENDIF  
   857  			*ENDIF   
   858  		*ENDIF
   859  		ESEL,S,LIVE   
   860  		EPLOT 
   861  		TIME,npi*tp+tp*(i-1)  
   862  		DELTIM,dtp,,dtpmax
   863  		ESEL,ALL  
   864  		SAVE  
   865  		!CNVTOL,F,,tolf,,0.01 
   866  		!CNVTOL,U,,tolu   
   867  		SOLVE 
   868  		! 
   869  		! Criterio de convergencia no tempo   
   870  		!criterio(i,1) = tp*(i-1) 
   871  		uanterior = uatual
   872  		*GET,uatual,NODE,nocontrole,U,SUM 
   873  		!deltau = uatual - uanterior  
   874  		!criterio(i,2) = deltau   
   875  	*ENDDO 
   876  	!  
   877  	np2 = 0
   878  	*IF,analise2,EQ,1,THEN 
   879  		! Faz o cálculo após o término da construção do túnel   
   880  		*DO,i,1,np2max
   881  			AUTOTS,tp2autots 
   882  			TIME,npi*tp+tp*(nesc-1)+i*tp2
   883  			DELTIM,dtp2,dtp2min,dtp2max,tp2carry 
   884  			SAVE 
   885  			!CNVTOL,F,,tolf2,,0.01   
   886  			!CNVTOL,U,,tolu2 
   887  			SOLVE
   888  			!
   889  			! Criterio de parada no longo prazo  
   890  			np2 = np2+1  
   891  			criterio(np2,1) = npi*tp+tp*(nesc-1)+i*tp2   
   892  			uanterior = uatual   
   893  			*GET,uatual,NODE,nocontrole,U,SUM
   894  			deltau = abs(uatual - uanterior) 
   895  			criterio(np2,2) = deltau 
   896  			criterio(np2,3) = uatual 
   897  			!*IF,deltau,LT,deltaumin,*EXIT   
   898  		*ENDDO
   899  	*ENDIF 
   900  	FINISH 
   901  *ENDIF  
   902  !   
   903  !************************************************************!  
   904  !****_ 5. PÓS-PROCESSAMENTO 				_****! 
   905  !************************************************************!  
   906  !   
   907  !************************************************************!  
   908  !****_ 		5.1 Configurações iniciais		_****!   
   909  !************************************************************!  
   910  !   
   911  ! mudando a cor da janela   
   912  /RGB,INDEX,100,100,100,0
   913  /RGB,INDEX,0,0,0,15 
   914  !   
   915  ! qualidade do arquivo jpeg de saida
   916  JPEG,QUAL,100,  
   917  JPEG,ORIENT,HORIZ   
   918  JPEG,COLOR,2
   919  JPEG,TMOD,1 
   920  /GFILE,800, 
   921  /TYPE,,3
   922  !   
   923  !************************************************************!  
   924  !****_ 		5.2 Plotando nó de controle no tempo 	_****!  
   925  !************************************************************!  
   926  !   
   927  ! Escrevendo criterio de convergencia no tempo  
   928  ! criterio(:,1) - tempo 
   929  ! criterio(:,2) - deltau
   930  ! criterio(:,3) - uatual
   931  !   
   932  *IF,analise2,EQ,1,THEN  
   933  !   
   934  *CREATE,ansuitmp
   935  *MWRITE,criterio,criterio,txt   
   936  (1000(E10.4,3X))
   937  *END
   938  /INPUT,ansuitmp 
   939  !   
   940  ! formatando grafico para plotar uatual x tempo 
   941  /RGB,INDEX,100,100,100,0
   942  /RGB,INDEX,0,0,0,15 
   943  /AXLAB,X,t  
   944  /AXLAB,Y,u(r=Re,z=Lt)   
   945  /XRANGE,0,npi*tp+tp*(nesc-1)+np2*tp2
   946  *VSCFUN,criteriomax,max,criterio(1,3)   
   947  /YRANGE,0,criteriomax*1.2   
   948  /GROPT,DIVY,20  
   949  /GROPT,DIVX,10  
   950  /GROPT,DIG1,3   
   951  /GTHK,CURVE,1   
   952  /PLOPTS,INFO,on 
   953  !   
   954  ! graficando na tela do Ansys   
   955  /ERASE  
   956  /SHOW,JPEG,,iso 
   957  *VLEN,np2   
   958  *VPLOT,criterio(1,1),criterio(1,3)  
   959  /SHOW,CLOSE	
   960  /ERASE  
   961  !   
   962  *ENDIF  
   963  !   
   964  !   
   965  !************************************************************!  
   966  !****_ 		5.3 Perfis de convergências e pressões 	_****!   
   967  !************************************************************!  
   968  /POST1	 
   969  !   
   970  ! selecionando os nós na interface entre revestimento e o maciço  
   971  NSEL,ALL
   972  NSEL,S,LOC,X,0.999*Re,1.001*Re  
   973  !   
   974  ! sistema de referencia dos resultados  
   975  RSYS,5  
   976  !   
   977  ! dimensionando arrays  
   978  nanalises = 0   
   979  *GET,nanalises,ACTIVE,0,SET,NSET	! pegando o número de análises	  
   980  *GET,ncount,NODE,,COUNT			  ! pegando numero máximo de nós selecionados   
   981  *GET,ntotal,NODE,,NUM,MAX		  ! pegando numero total de nós 
   982  *DIM,convergence,TABLE,ncount,2+nanalises ! dimensionando tabela de convergencias   
   983  *DIM,pressurex,TABLE,ncount,2+nanalises	  ! dimensionando tabela de pressões em x  
   984  *DIM,pressurey,TABLE,ncount,2+nanalises	  ! dimensionando tabela de pressões em y  
   985  *DIM,coordy,ARRAY,ntotal		  ! dimensionando vetor de coordenadas nodais 
   986  *DIM,u_x,ARRAY,ntotal			  ! dimensionando vetor de deslocamentos em x   
   987  *DIM,s_x,ARRAY,ntotal			  ! dimensionando vetor de pressões em x   
   988  *DIM,s_y,ARRAY,ntotal			  ! dimensionando vetor de pressões em y   
   989  *DIM,n_sel,ARRAY,ntotal			  ! dimensionando vetor que indica se o nó está selecionado 
   990  !   
   991  ! coloca lista de nós em ordem na primeira coluna  
   992  *VGET,convergence(1,1),NODE,,NLIST  
   993  *VGET,pressurex(1,1),NODE,,NLIST
   994  *VGET,pressurey(1,1),NODE,,NLIST
   995  !   
   996  ! criando vetor de coordenadas  
   997  *VGET,n_sel(1),NODE,1,NSEL  
   998  *VGET,coordy(1),NODE,1,LOC,y
   999  *VOPER,coordy(1),coordy(1),MULT,1/Re
  1000  !   
  1001  ! Preenchendo o convergence e pressure com as coordenadas   
  1002  *VMASK,n_sel(1)				! usa como mascara os nós selecionados  
  1003  *VFUN,convergence(1,2),COMP,coordy(1)   
  1004  *VMASK,n_sel(1) 
  1005  *VFUN,pressurex(1,2),COMP,coordy(1) 
  1006  *VMASK,n_sel(1) 
  1007  *VFUN,pressurey(1,2),COMP,coordy(1) 
  1008  !   
  1009  ! preenchendo o convergence com a convergência 
  1010  *DO,i,1,nanalises,1 
  1011  	! identifica o passo   
  1012  	*IF,i,EQ,nanalises,THEN
  1013  		SUBSET,LAST   
  1014  	*ELSE  
  1015  		*IF,matmacico,LE,1,AND,matrev,EQ,0,THEN   
  1016  			SUBSET,LAST  
  1017  		*ELSE 
  1018  			SUBSET,i,,,,,,   
  1019  		*ENDIF
  1020  	*ENDIF 
  1021  	!  
  1022  	! Preenchendo o array com os deslocamentos radiais e tensões radiais  
  1023  	*VMASK,n_sel(1)
  1024  	*VGET,u_x(1),NODE,1,U,X
  1025  	*VOPER,u_x(1),u_x(1),MULT,-1/Re*100
  1026  	!  
  1027  	*VMASK,n_sel(1)
  1028  	*VGET,s_x(1),NODE,1,S,X
  1029  	*VOPER,s_x(1),s_x(1),MULT,1
  1030  	!  
  1031  	*VMASK,n_sel(1)
  1032  	*VGET,s_y(1),NODE,1,S,Y
  1033  	*VOPER,s_y(1),s_y(1),MULT,1
  1034  	!  
  1035  	! Preenchendo o convergence e pressure 
  1036  	*VMASK,n_sel(1)
  1037  	*VFUN,convergence(1,2+i),COMP,u_x(1)   
  1038  	*VMASK,n_sel(1)
  1039  	*VFUN,pressurex(1,2+i),COMP,s_x(1) 
  1040  	*VMASK,n_sel(1)
  1041  	*VFUN,pressurey(1,2+i),COMP,s_y(1) 
  1042  *ENDDO  
  1043  !   
  1044  ! ordena a tabela de acordo com a segunda coluna (das coordenadas)  
  1045  *MOPER,ORDER,convergence,SORT,convergence(1,2)  
  1046  *MOPER,ORDER,pressurex,SORT,pressurex(1,2)  
  1047  *MOPER,ORDER,pressurey,SORT,pressurey(1,2)  
  1048  !   
  1049  ! Coleta o maior valor das convergências   
  1050  *VSCFUN,umaximofinal,max,convergence(1,2+nanalises) 
  1051  *VSCFUN,smaximofinalx,max,pressurex(1,2+nanalises)  
  1052  *VSCFUN,sminimofinalx,min,pressurex(1,2+nanalises)  
  1053  *VSCFUN,smaximofinaly,max,pressurey(1,2+nanalises)  
  1054  *VSCFUN,sminimofinaly,min,pressurey(1,2+nanalises)  
  1055  !   
  1056  ! formatando grafico de convergencia
  1057  /RGB,INDEX,100,100,100,0
  1058  /RGB,INDEX,0,0,0,15 
  1059  /AXLAB,X,Y/Re   
  1060  /AXLAB,Y,U=-u(r=Re)/Re (%)  
  1061  /XRANGE,0,Lt/Re 
  1062  /YRANGE,umaximofinal*1.2,0  
  1063  /GROPT,DIVY,20  
  1064  /GROPT,DIVX,10  
  1065  /GROPT,DIG1,3   
  1066  /GTHK,CURVE,1   
  1067  /PLOPTS,INFO,on 
  1068  !   
  1069  ! graficando na tela do Ansys   
  1070  /ERASE  
  1071  /SHOW,JPEG,,iso	
  1072  *DO,i,1,nanalises,1 
  1073  	*IF,i,EQ,nanalises,THEN
  1074  		/COLOR,CURVE,MAGE,1   
  1075  	*ELSEIF,i,EQ,nesc,THEN 
  1076  		/COLOR,CURVE,YELL,1   
  1077  	*ELSE  
  1078  		/COLOR,CURVE,LGRA,1   
  1079  	*ENDIF 
  1080  	*VPLOT,convergence(1,2),convergence(1,2+i) 
  1081  	/NOERASE   
  1082  *ENDDO  
  1083  /SHOW,CLOSE	
  1084  /ERASE  
  1085  !   
  1086  !   
  1087  ! formatando grafico do pressurex   
  1088  /RGB,INDEX,100,100,100,0
  1089  /RGB,INDEX,0,0,0,15 
  1090  /AXLAB,X,Y/Re   
  1091  /AXLAB,Y,Sx (MPa)   
  1092  /XRANGE,0,Lt/Re 
  1093  /YRANGE,smaximofinalx*1.2,sminimofinalx*1.2 
  1094  /GROPT,DIVY,20  
  1095  /GROPT,DIVX,10  
  1096  /GROPT,DIG1,3   
  1097  /GTHK,CURVE,1   
  1098  /PLOPTS,INFO,on 
  1099  !   
  1100  ! graficando na tela do Ansys   
  1101  /ERASE  
  1102  /SHOW,JPEG,,iso	
  1103  *DO,i,1,nanalises,1 
  1104  	*IF,i,EQ,nanalises,THEN
  1105  		/COLOR,CURVE,MAGE,1   
  1106  	*ELSEIF,i,EQ,nesc,THEN 
  1107  		/COLOR,CURVE,YELL,1   
  1108  	*ELSE  
  1109  		/COLOR,CURVE,LGRA,1   
  1110  	*ENDIF 
  1111  	*VPLOT,pressurex(1,2),pressurex(1,2+i) 
  1112  	/NOERASE   
  1113  *ENDDO  
  1114  /SHOW,CLOSE	
  1115  /ERASE  
  1116  !   
  1117  ! formatando grafico do pressurey   
  1118  /RGB,INDEX,100,100,100,0
  1119  /RGB,INDEX,0,0,0,15 
  1120  /AXLAB,X,Y/Re   
  1121  /AXLAB,Y,Sy (MPa)   
  1122  /XRANGE,0,Lt/Re 
  1123  /YRANGE,smaximofinaly*1.2,sminimofinaly*1.2 
  1124  /GROPT,DIVY,20  
  1125  /GROPT,DIVX,10  
  1126  /GROPT,DIG1,3   
  1127  /GTHK,CURVE,1   
  1128  /PLOPTS,INFO,on 
  1129  !   
  1130  ! graficando na tela do Ansys   
  1131  /ERASE  
  1132  /SHOW,JPEG,,iso	
  1133  *DO,i,1,nanalises,1 
  1134  	*IF,i,EQ,nanalises,THEN
  1135  		/COLOR,CURVE,MAGE,1   
  1136  	*ELSEIF,i,EQ,nesc,THEN 
  1137  		/COLOR,CURVE,YELL,1   
  1138  	*ELSE  
  1139  		/COLOR,CURVE,LGRA,1   
  1140  	*ENDIF 
  1141  	*VPLOT,pressurey(1,2),pressurey(1,2+i) 
  1142  	/NOERASE   
  1143  *ENDDO  
  1144  /SHOW,CLOSE	
  1145  /ERASE  
  1146  !   
  1147  ! Escrevendo em arquivo as convergências   
  1148  *CREATE,ansuitmp
  1149  *MWRITE,convergence,convergencias,txt   
  1150  (1000(E10.4,3X))
  1151  *END
  1152  /INPUT,ansuitmp 
  1153  !   
  1154  ! Escrevendo em arquivo as pressõesx   
  1155  *CREATE,ansuitmp
  1156  *MWRITE,pressurex,pressurex,txt 
  1157  (1000(E10.4,3X))
  1158  *END
  1159  /INPUT,ansuitmp 
  1160  !   
  1161  ! Escrevendo em arquivo as pressõesy   
  1162  *CREATE,ansuitmp
  1163  *MWRITE,pressurey,pressurey,txt 
  1164  (1000(E10.4,3X))
  1165  *END
  1166  /INPUT,ansuitmp 
  1167  !   
  1168  ! Cria arquivo com os parâmetros   
  1169  PARSAV,SCALAR,parametros,txt
  1170  !   
  1171  !   
  1172  !****_ 			FIM				_****! 
  1173      
  1174      

 RUN SETUP PROCEDURE FROM FILE= C:\Program Files\ANSYS Inc\v211\ANSYS\apdl\start.ans

 /INPUT FILE= C:\Program Files\ANSYS Inc\v211\ANSYS\apdl\start.ans  LINE=       0

 CLEAR ANSYS DATABASE AND RESTART

 ANSYS Mechanical Enterprise                       

 PARAMETER RE =     1.000000000    

 PARAMETER ESP =    0.1000000000    

 PARAMETER LP =    0.3333333333    

 PARAMETER ND0 =     2.000000000    

 PARAMETER NPI =     3.000000000    

 PARAMETER VP =     5.000000000    

 PARAMETER REVESTED0 =     0.000000000    

 PARAMETER REVESTEFACE =     0.000000000    

 PARAMETER L1 =     10.00000000    

 PARAMETER L2 =     130.0000000    

 PARAMETER L3 =     20.00000000    

 PARAMETER MATMACICO =     6.000000000    

 PARAMETER E1 =     20000.00000    

 PARAMETER NU1 =    0.3000000000    

 PARAMETER SUPERFICIEF =     2.000000000    

 PARAMETER SUPERFICIEG =     2.000000000    

 PARAMETER FI =     30.00000000    

 PARAMETER PSI =     30.00000000    

 PARAMETER C1 =     5.000000000    

 PARAMETER C2 =     5.000000000    

 PARAMETER C3 =     5.000000000    

 PARAMETER EPS1 =    0.1000000000E-01

 PARAMETER EPS2 =    0.1000000000E-01

 PARAMETER EPS3 =    0.1000000000E-01

 PARAMETER DALG =     0.000000000    

 PARAMETER SUPERFICIEFVP =     2.000000000    

 PARAMETER SUPERFICIEGVP =     2.000000000    

 PARAMETER FIVP =     0.000000000    

 PARAMETER PSIVP =     0.000000000    

 PARAMETER CVP =     1.732050808    

 PARAMETER N1 =     1.000000000    

 PARAMETER ETA =     40000.00000    

 PARAMETER F0 =     1.000000000    

 PARAMETER THETAVP =     1.000000000    

 PARAMETER MATREV =     0.000000000    

 PARAMETER E2 =     30000.00000    

 PARAMETER NU2 =    0.2000000000    

 PARAMETER FCK =     20.00000000    

 PARAMETER S =    0.2000000000    

 PARAMETER TI =     0.000000000    

 PARAMETER RH =     70.00000000    

 PARAMETER HF =    0.2111111111    

 PARAMETER TS =     7.000000000    

 PARAMETER T0 =     1.000000000    

 PARAMETER TINF =     3000.000000    

 PARAMETER BETASC =     8.000000000    

 PARAMETER TEMPERATURA =     20.00000000    

 PARAMETER ALPHA =     1.000000000    

 PARAMETER NDEC =     10.00000000    

 PARAMETER LIGAFLUENCIA =     1.000000000    

 PARAMETER LIGARETRACAO =     1.000000000    

 PARAMETER KTIME =     10.00000000    

 PARAMETER KELEMID =     2060.000000    

 PARAMETER KKDOMINTPT =     1.000000000    

 PARAMETER FCM =     28.00000000    

 PARAMETER E2 =     30303.38455    

 PARAMETER PR =     30.00000000    

 PARAMETER TP =    0.6666666667E-01

 PARAMETER DTP =    0.3333333333E-01

 PARAMETER DTPMAX =    0.3333333333E-01

 PARAMETER TP2 =     100.0000000    

 PARAMETER NP2MAX =     30.00000000    

 PARAMETER DTP2 =     50.00000000    

 PARAMETER TP2AUTOTS =     1.000000000    

 PARAMETER TP2CARRY =     1.000000000    

 PARAMETER DTP2MIN =     50.00000000    

 PARAMETER DTP2MAX =     100.0000000    

 PARAMETER DELTAUMIN =    0.1000000000E-07

 PARAMETER TIPOELEM =     1.000000000    

 PARAMETER FORMAELEM =     0.000000000    

 PARAMETER FORMAINT =     0.000000000    

 PARAMETER TIPOMALHA =     1.000000000    

 PARAMETER NLP =     1.000000000    

 PARAMETER NL1 =     15.00000000    

 PARAMETER ML1 =    0.2000000000    

 PARAMETER NESP =     2.000000000    

 PARAMETER NRI =     6.000000000    

 PARAMETER NLX =     20.00000000    

 PARAMETER MLX =     40.00000000    

 PARAMETER ISO =     0.000000000    

 PARAMETER FLAG1 =     1.000000000    

 PARAMETER FLAG2 =     1.000000000    

 PARAMETER FLAG3 =     1.000000000    

 PARAMETER NR =     2.000000000    

 PARAMETER TOLF =    0.1000000000E-05

 PARAMETER TOLU =    0.1000000000E-03

 PARAMETER TOLF2 =    0.1000000000E-05

 PARAMETER TOLU2 =    0.1000000000E-03

 PARAMETER PLSLIMIT =    0.1500000000    

 PARAMETER PSC =     1.000000000    

 PARAMETER NLG =     0.000000000    

 PARAMETER SOLEQ =     0.000000000    

 TITLE= 
  Re=1 matmacico=6 E1=20000 pr=30 matrev=0 E2=30303.3845 Vp=5                  


 CURRENT JOBNAME REDEFINED AS file

 *** ANSYS - ENGINEERING ANALYSIS SYSTEM  RELEASE 2021 R1          21.1     ***
 ANSYS Mechanical Enterprise                       
 00000000  VERSION=WINDOWS x64   14:52:51  APR 30, 2024 CP=      0.312

  Re=1 matmacico=6 E1=20000 pr=30 matrev=0 E2=30303.3845 Vp=5                  



          ***** ANSYS ANALYSIS DEFINITION (PREP7) *****

 PARAMETER RI =    0.9000000000    

 PARAMETER L1 =     10.00000000    

 PARAMETER L2 =     43.33333333    

 PARAMETER L3 =     20.00000000    

 PARAMETER LT =     53.33333333    

 PARAMETER D0 =    0.6666666667    

 PARAMETER NP =     130.0000000    

 PARAMETER NESC =     128.0000000    

 PARAMETER NL2 =     130.0000000    

 PARAMETER ANALISE2 =     0.000000000    

 *IF  matmacico                         ( =   6.00000     )  GT  
      6                                 ( =   6.00000     )          
 *****  OR    *****
      matrev                            ( =   0.00000     )  GT  
      1                                 ( =   1.00000     )  THEN    

 *ENDIF

 *IF  matmacico                         ( =   6.00000     )  EQ  
      23                                ( =   23.0000     )  THEN    

 *ENDIF

 *IF  tipoelem                          ( =   1.00000     )  EQ  
      1                                 ( =   1.00000     )  THEN    

 ELEMENT TYPE          1 IS PLANE182     2-D 4-NODE PLANE STRS SOLID 
  KEYOPT( 1- 6)=        0      0      0        0      0      0
  KEYOPT( 7-12)=        0      0      0        0      0      0
  KEYOPT(13-18)=        0      0      0        0      0      0

 CURRENT NODAL DOF SET IS  UX    UY  
  TWO-DIMENSIONAL MODEL

 *ELSE

 *ENDIF

 ELEMENT TYPE       1 IS PLANE182     2-D 4-NODE PLANE STRS SOLID 
  KEYOPT( 1- 6)=        0      0      0        0      0      0
  KEYOPT( 7-12)=        0      0      0        0      0      0
  KEYOPT(13-18)=        0      0      0        0      0      0

 CURRENT NODAL DOF SET IS  UX    UY  
  TWO-DIMENSIONAL MODEL

 ELEMENT TYPE       1 IS PLANE182     4-NODE AXISYMMETRIC SOLID   
  KEYOPT( 1- 6)=        0      0      1        0      0      0
  KEYOPT( 7-12)=        0      0      0        0      0      0
  KEYOPT(13-18)=        0      0      0        0      0      0

 CURRENT NODAL DOF SET IS  UX    UY  
  AXISYMMETRIC MODEL

 ELEMENT TYPE       1 IS PLANE182     4-NODE AXISYMMETRIC SOLID   
  KEYOPT( 1- 6)=        0      0      1        0      0      0
  KEYOPT( 7-12)=        0      0      0        0      0      0
  KEYOPT(13-18)=        0      0      0        0      0      0

 CURRENT NODAL DOF SET IS  UX    UY  
  AXISYMMETRIC MODEL

 *IF  matmacico                         ( =   6.00000     )  EQ  
      1                                 ( =   1.00000     )  THEN    

 *ELSEIF  matmacico                         ( =   6.00000     )  EQ  
          2                                 ( =   2.00000     )  THEN    

 *ELSEIF  matmacico                         ( =   6.00000     )  EQ  
          22                                ( =   22.0000     )  THEN    

 *ELSEIF  matmacico                         ( =   6.00000     )  EQ  
          23                                ( =   23.0000     )  THEN    

 *ELSEIF  matmacico                         ( =   6.00000     )  EQ  
          4                                 ( =   4.00000     )  THEN    

 *ELSEIF  matmacico                         ( =   6.00000     )  EQ  
          5                                 ( =   5.00000     )  THEN    

 *ELSEIF  matmacico                         ( =   6.00000     )  EQ  
          6                                 ( =   6.00000     )  THEN    

 DEFINE DATA TABLE USER FOR MATERIAL 1 
 USER MATERIALS OPTION 
 WITH A MAXIMUM OF 2 TEMPERATURES AND 14 DATA POINTS
 TEMPERATURE TO BE USED FOR THE NEXT TBDAT COMMAND=  1.0000
    TEMPERATURE SPECIFICATION=  1

 DATA FOR  USER  TABLE FOR MATERIAL   1 AT TEMPERATURE=  1.0000    
 LOC=  1 6.00000e+00     2.00000e+04     3.00000e-01    

 DATA FOR  USER  TABLE FOR MATERIAL   1 AT TEMPERATURE=  1.0000    
 LOC=  4 2.00000e+00     2.00000e+00    

 DATA FOR  USER  TABLE FOR MATERIAL   1 AT TEMPERATURE=  1.0000    
 LOC=  6 3.00000e+01     3.00000e+01    

 DATA FOR  USER  TABLE FOR MATERIAL   1 AT TEMPERATURE=  1.0000    
 LOC=  8 5.00000e+00     5.00000e+00     5.00000e+00     1.00000e-02     1.00000e-02     1.00000e-02    

 DATA FOR  USER  TABLE FOR MATERIAL   1 AT TEMPERATURE=  1.0000    
 LOC=  14 0.00000e+00    


 DEFINE DATA TABLE  STAT  FOR MATERIAL     1
   USER DEFINED STATE VARIABLES OPTION                                             
   Number of state variables is      20
   WITH A MAXIMUM OF      1 TEMPERATURES AND      20 DATA POINTS

 *ELSEIF  matmacico                         ( =   6.00000     )  EQ  
          7                                 ( =   7.00000     )  THEN    

 *ENDIF

 *IF  matrev                            ( =   0.00000     )  EQ  
      1                                 ( =   1.00000     )  THEN    

 *ELSEIF  matrev                            ( =   0.00000     )  EQ  
          2                                 ( =   2.00000     )  THEN    

 *ENDIF

 view point for window  1    0.0000      0.0000      1.0000    

 ROTATION ANGLE FOR WINDOW 1 IS     0.00 ABOUT AXIS ZS

 KEYPOINT        1                  X,Y,Z=   0.00000       0.00000       0.00000      IN CSYS=        0

 KEYPOINT        2                  X,Y,Z=   0.00000       10.0000       0.00000      IN CSYS=        0

 KEYPOINT        3                  X,Y,Z=   0.00000       53.3333       0.00000      IN CSYS=        0

 KEYPOINT        4                  X,Y,Z=  0.900000       0.00000       0.00000      IN CSYS=        0

 KEYPOINT        5                  X,Y,Z=  0.900000       10.0000       0.00000      IN CSYS=        0

 KEYPOINT        6                  X,Y,Z=  0.900000       53.3333       0.00000      IN CSYS=        0

 KEYPOINT        7                  X,Y,Z=   1.00000       0.00000       0.00000      IN CSYS=        0

 KEYPOINT        8                  X,Y,Z=   1.00000       10.0000       0.00000      IN CSYS=        0

 KEYPOINT        9                  X,Y,Z=   1.00000       53.3333       0.00000      IN CSYS=        0

 KEYPOINT       10                  X,Y,Z=   20.0000       0.00000       0.00000      IN CSYS=        0

 KEYPOINT       11                  X,Y,Z=   20.0000       10.0000       0.00000      IN CSYS=        0

 KEYPOINT       12                  X,Y,Z=   20.0000       53.3333       0.00000      IN CSYS=        0

 LINE CONNECTS KEYPOINTS      1     4
  LINE NO.=     1  KP1=      1  TAN1=   -1.0000   0.0000   0.0000
                   KP2=      4  TAN2=    1.0000   0.0000   0.0000

 LINE CONNECTS KEYPOINTS      4     7
  LINE NO.=     2  KP1=      4  TAN1=   -1.0000   0.0000   0.0000
                   KP2=      7  TAN2=    1.0000   0.0000   0.0000

 LINE CONNECTS KEYPOINTS      7    10
  LINE NO.=     3  KP1=      7  TAN1=   -1.0000   0.0000   0.0000
                   KP2=     10  TAN2=    1.0000   0.0000   0.0000

 LINE CONNECTS KEYPOINTS      2     5
  LINE NO.=     4  KP1=      2  TAN1=   -1.0000   0.0000   0.0000
                   KP2=      5  TAN2=    1.0000   0.0000   0.0000

 LINE CONNECTS KEYPOINTS      5     8
  LINE NO.=     5  KP1=      5  TAN1=   -1.0000   0.0000   0.0000
                   KP2=      8  TAN2=    1.0000   0.0000   0.0000

 LINE CONNECTS KEYPOINTS      8    11
  LINE NO.=     6  KP1=      8  TAN1=   -1.0000   0.0000   0.0000
                   KP2=     11  TAN2=    1.0000   0.0000   0.0000

 LINE CONNECTS KEYPOINTS      3     6
  LINE NO.=     7  KP1=      3  TAN1=   -1.0000   0.0000   0.0000
                   KP2=      6  TAN2=    1.0000   0.0000   0.0000

 LINE CONNECTS KEYPOINTS      6     9
  LINE NO.=     8  KP1=      6  TAN1=   -1.0000   0.0000   0.0000
                   KP2=      9  TAN2=    1.0000   0.0000   0.0000

 LINE CONNECTS KEYPOINTS      9    12
  LINE NO.=     9  KP1=      9  TAN1=   -1.0000   0.0000   0.0000
                   KP2=     12  TAN2=    1.0000   0.0000   0.0000

 LINE CONNECTS KEYPOINTS      1     2
  LINE NO.=    10  KP1=      1  TAN1=    0.0000  -1.0000   0.0000
                   KP2=      2  TAN2=    0.0000   1.0000   0.0000

 LINE CONNECTS KEYPOINTS      2     3
  LINE NO.=    11  KP1=      2  TAN1=    0.0000  -1.0000   0.0000
                   KP2=      3  TAN2=    0.0000   1.0000   0.0000

 LINE CONNECTS KEYPOINTS      4     5
  LINE NO.=    12  KP1=      4  TAN1=    0.0000  -1.0000   0.0000
                   KP2=      5  TAN2=    0.0000   1.0000   0.0000

 LINE CONNECTS KEYPOINTS      5     6
  LINE NO.=    13  KP1=      5  TAN1=    0.0000  -1.0000   0.0000
                   KP2=      6  TAN2=    0.0000   1.0000   0.0000

 LINE CONNECTS KEYPOINTS      7     8
  LINE NO.=    14  KP1=      7  TAN1=    0.0000  -1.0000   0.0000
                   KP2=      8  TAN2=    0.0000   1.0000   0.0000

 LINE CONNECTS KEYPOINTS      8     9
  LINE NO.=    15  KP1=      8  TAN1=    0.0000  -1.0000   0.0000
                   KP2=      9  TAN2=    0.0000   1.0000   0.0000

 LINE CONNECTS KEYPOINTS     10    11
  LINE NO.=    16  KP1=     10  TAN1=    0.0000  -1.0000   0.0000
                   KP2=     11  TAN2=    0.0000   1.0000   0.0000

 LINE CONNECTS KEYPOINTS     11    12
  LINE NO.=    17  KP1=     11  TAN1=    0.0000  -1.0000   0.0000
                   KP2=     12  TAN2=    0.0000   1.0000   0.0000

 DEFINE AREA BY LIST OF KEYPOINTS
   KEYPOINT LIST =      1     2     5     4

     AREA NUMBER =      1

 DEFINE AREA BY LIST OF KEYPOINTS
   KEYPOINT LIST =      2     3     6     5

     AREA NUMBER =      2

 DEFINE AREA BY LIST OF KEYPOINTS
   KEYPOINT LIST =      4     5     8     7

     AREA NUMBER =      3

 DEFINE AREA BY LIST OF KEYPOINTS
   KEYPOINT LIST =      5     6     9     8

     AREA NUMBER =      4

 DEFINE AREA BY LIST OF KEYPOINTS
   KEYPOINT LIST =      7     8    11    10

     AREA NUMBER =      5

 DEFINE AREA BY LIST OF KEYPOINTS
   KEYPOINT LIST =      8     9    12    11

     AREA NUMBER =      6

 KP   NUMBERING KEY =  1

 AREA NUMBERING KEY =  1

 LINE NUMBERING KEY =  1

 *** NOTE *** Display device has not yet been specified with the /SHOW command.  Display commands ignored. 

 ALL SELECT   FOR ITEM=LINE COMPONENT=    
  IN RANGE         1 TO         17 STEP          1

       17  LINES (OF       17  DEFINED) SELECTED BY LSEL COMMAND.

 SELECT       FOR ITEM=LOC  COMPONENT=X     BETWEEN  0.0000     AND   20.000    
   KABS=  0.  TOLERANCE= 0.200000E-06

       17  LINES (OF       17  DEFINED) SELECTED BY LSEL  COMMAND.

 RESELECT     FOR ITEM=LOC  COMPONENT=Y     BETWEEN  10.010     AND   53.323    
   KABS=  0.  TOLERANCE= 0.433133E-06

        4  LINES (OF       17  DEFINED) SELECTED BY LSEL  COMMAND.

 SET DIVISIONS ON ALL SELECTED LINES
      TO  NDIV =  130,  SPACING RATIO =   1.000
      (KFORCE = 0      PREVIOUS NONZERO VALUES WILL NOT BE ALTERED)
 NDIV AND SPACE CAN BE OVERRIDDEN FOR CURVATURE OR PROXIMITY

 ALL SELECT   FOR ITEM=LINE COMPONENT=    
  IN RANGE         1 TO         17 STEP          1

       17  LINES (OF       17  DEFINED) SELECTED BY LSEL COMMAND.

 SELECT       FOR ITEM=LOC  COMPONENT=X     BETWEEN  0.0000     AND   20.000    
   KABS=  0.  TOLERANCE= 0.200000E-06

       17  LINES (OF       17  DEFINED) SELECTED BY LSEL  COMMAND.

 RESELECT     FOR ITEM=LOC  COMPONENT=Y     BETWEEN 0.10000E-01 AND   9.9900    
   KABS=  0.  TOLERANCE= 0.998000E-07

        4  LINES (OF       17  DEFINED) SELECTED BY LSEL  COMMAND.

 SET DIVISIONS ON ALL SELECTED LINES
      TO  NDIV =   15,  SPACING RATIO =   0.200
      (KFORCE = 0      PREVIOUS NONZERO VALUES WILL NOT BE ALTERED)
 NDIV AND SPACE CAN BE OVERRIDDEN FOR CURVATURE OR PROXIMITY

 ALL SELECT   FOR ITEM=LINE COMPONENT=    
  IN RANGE         1 TO         17 STEP          1

       17  LINES (OF       17  DEFINED) SELECTED BY LSEL COMMAND.

 SELECT       FOR ITEM=LOC  COMPONENT=X     BETWEEN 0.91000     AND  0.99000    
   KABS=  0.  TOLERANCE= 0.800000E-09

        3  LINES (OF       17  DEFINED) SELECTED BY LSEL  COMMAND.

 RESELECT     FOR ITEM=LOC  COMPONENT=Y     BETWEEN  0.0000     AND   53.333    
   KABS=  0.  TOLERANCE= 0.533333E-06

        3  LINES (OF       17  DEFINED) SELECTED BY LSEL  COMMAND.

 SET DIVISIONS ON ALL SELECTED LINES
      TO  NDIV =    2,  SPACING RATIO =   1.000
      (KFORCE = 0      PREVIOUS NONZERO VALUES WILL NOT BE ALTERED)
 NDIV AND SPACE CAN BE OVERRIDDEN FOR CURVATURE OR PROXIMITY

 ALL SELECT   FOR ITEM=LINE COMPONENT=    
  IN RANGE         1 TO         17 STEP          1

       17  LINES (OF       17  DEFINED) SELECTED BY LSEL COMMAND.

 SELECT       FOR ITEM=LOC  COMPONENT=X     BETWEEN  0.0000     AND  0.89000    
   KABS=  0.  TOLERANCE= 0.890000E-08

        5  LINES (OF       17  DEFINED) SELECTED BY LSEL  COMMAND.

 RESELECT     FOR ITEM=LOC  COMPONENT=Y     BETWEEN  0.0000     AND   53.333    
   KABS=  0.  TOLERANCE= 0.533333E-06

        5  LINES (OF       17  DEFINED) SELECTED BY LSEL  COMMAND.

 SET DIVISIONS ON ALL SELECTED LINES
      TO  NDIV =    6,  SPACING RATIO =   1.000
      (KFORCE = 0      PREVIOUS NONZERO VALUES WILL NOT BE ALTERED)
 NDIV AND SPACE CAN BE OVERRIDDEN FOR CURVATURE OR PROXIMITY

 ALL SELECT   FOR ITEM=LINE COMPONENT=    
  IN RANGE         1 TO         17 STEP          1

       17  LINES (OF       17  DEFINED) SELECTED BY LSEL COMMAND.

 SELECT       FOR ITEM=LOC  COMPONENT=X     BETWEEN  1.0100     AND   19.990    
   KABS=  0.  TOLERANCE= 0.189800E-06

        3  LINES (OF       17  DEFINED) SELECTED BY LSEL  COMMAND.

 RESELECT     FOR ITEM=LOC  COMPONENT=Y     BETWEEN  0.0000     AND   53.333    
   KABS=  0.  TOLERANCE= 0.533333E-06

        3  LINES (OF       17  DEFINED) SELECTED BY LSEL  COMMAND.

 SET DIVISIONS ON ALL SELECTED LINES
      TO  NDIV =   20,  SPACING RATIO =  40.000
      (KFORCE = 0      PREVIOUS NONZERO VALUES WILL NOT BE ALTERED)
 NDIV AND SPACE CAN BE OVERRIDDEN FOR CURVATURE OR PROXIMITY
 USE THE MAPPED MESHER.
 PRODUCE ALL QUADRILATERAL ELEMENTS IN 2D.
 PRODUCE ALL HEXAHEDRAL ELEMENTS IN 3D.

 GENERATE NODES AND ELEMENTS
       IN AREAS         1  TO      1  IN STEPS OF      1
    ** AREA     1 MESHED WITH      90 QUADRILATERALS,        0 TRIANGLES **

 NUMBER OF AREAS MESHED     =          1
 MAXIMUM NODE NUMBER        =        112
 MAXIMUM ELEMENT NUMBER     =         90

 GENERATE NODES AND ELEMENTS
       IN AREAS         2  TO      2  IN STEPS OF      1
    ** AREA     2 MESHED WITH     780 QUADRILATERALS,        0 TRIANGLES **

 NUMBER OF AREAS MESHED     =          1
 MAXIMUM NODE NUMBER        =       1022
 MAXIMUM ELEMENT NUMBER     =        870

 GENERATE NODES AND ELEMENTS
       IN AREAS         3  TO      3  IN STEPS OF      1
    ** AREA     3 MESHED WITH      30 QUADRILATERALS,        0 TRIANGLES **

 NUMBER OF AREAS MESHED     =          1
 MAXIMUM NODE NUMBER        =       1054
 MAXIMUM ELEMENT NUMBER     =        900

 ------------------------------------------------------------------------------
            <<<<<<          SHAPE TESTING SUMMARY           >>>>>>
            <<<<<<       FOR NEW OR MODIFIED ELEMENTS       >>>>>>
 ------------------------------------------------------------------------------
                    --------------------------------------
                    |  Element count        30 PLANE182  |
                    --------------------------------------

  Test                Number tested  Warning count  Error count    Warn+Err %
  ----                -------------  -------------  -----------    ----------
  Aspect Ratio                 30              6             0        20.00 %
  Parallel Deviation           30              0             0         0.00 %
  Maximum Angle                30              0             0         0.00 %
  Jacobian Ratio               30              0             0         0.00 %

  Any                          30              6             0        20.00 %
 ------------------------------------------------------------------------------

 *** WARNING ***                         CP =       0.312   TIME= 14:52:51
 Shape testing revealed that 6 of the 30 new or modified elements        
 violate shape warning limits.  To review test results, please see the   
 output file or issue the CHECK command.                                 

 GENERATE NODES AND ELEMENTS
       IN AREAS         4  TO      4  IN STEPS OF      1
    ** AREA     4 MESHED WITH     260 QUADRILATERALS,        0 TRIANGLES **

 NUMBER OF AREAS MESHED     =          1
 MAXIMUM NODE NUMBER        =       1314
 MAXIMUM ELEMENT NUMBER     =       1160

 GENERATE NODES AND ELEMENTS
       IN AREAS         5  TO      5  IN STEPS OF      1
    ** AREA     5 MESHED WITH     300 QUADRILATERALS,        0 TRIANGLES **

 NUMBER OF AREAS MESHED     =          1
 MAXIMUM NODE NUMBER        =       1634
 MAXIMUM ELEMENT NUMBER     =       1460

 GENERATE NODES AND ELEMENTS
       IN AREAS         6  TO      6  IN STEPS OF      1
    ** AREA     6 MESHED WITH    2600 QUADRILATERALS,        0 TRIANGLES **

 NUMBER OF AREAS MESHED     =          1
 MAXIMUM NODE NUMBER        =       4234
 MAXIMUM ELEMENT NUMBER     =       4060

 SELECT ALL ENTITIES OF TYPE= ALL  AND BELOW

 SELECT       FOR ITEM=CENT COMPONENT=Y     BETWEEN  10.000     AND   53.333    
   KABS=  0.  TOLERANCE=  0.00000    

       3640  ELEMENTS (OF       4060  DEFINED) SELECTED BY  ESEL  COMMAND.

 RESELECT     FOR ITEM=CENT COMPONENT=X     BETWEEN 0.90000     AND   1.0000    
   KABS=  0.  TOLERANCE=  0.00000    

        260  ELEMENTS (OF       4060  DEFINED) SELECTED BY  ESEL  COMMAND.

 DEFINITION OF COMPONENT = CASCA1    ENTITY=ELEM

 SELECT ALL ENTITIES OF TYPE= ALL  AND BELOW

 SELECT       FOR ITEM=AREA COMPONENT=    
  IN RANGE         1 TO          1 STEP          1

        1  AREAS (OF        6  DEFINED) SELECTED BY  ASEL  COMMAND.

 ALSO SELECT  FOR ITEM=AREA COMPONENT=    
  IN RANGE         3 TO          3 STEP          1

        2  AREAS (OF        6  DEFINED) SELECTED BY ASEL  COMMAND.

 ALSO SELECT  FOR ITEM=AREA COMPONENT=    
  IN RANGE         5 TO          5 STEP          1

        3  AREAS (OF        6  DEFINED) SELECTED BY ASEL  COMMAND.

 ALSO SELECT  FOR ITEM=AREA COMPONENT=    
  IN RANGE         6 TO          6 STEP          1

        4  AREAS (OF        6  DEFINED) SELECTED BY ASEL  COMMAND.

 SELECT      ELEMENTS CREATED FROM SELECTED AREAS.

       3020  ELEMENTS (OF       4060  DEFINED) SELECTED FROM
        4 SELECTED AREAS BY  ESLA  COMMAND.
 ALL ELEM COLORS LIGHT-GRAY                              

 SELECT ALL ENTITIES OF TYPE= ALL  AND BELOW

 SELECT       FOR ITEM=AREA COMPONENT=    
  IN RANGE         2 TO          2 STEP          1

        1  AREAS (OF        6  DEFINED) SELECTED BY  ASEL  COMMAND.

 ALSO SELECT  FOR ITEM=AREA COMPONENT=    
  IN RANGE         4 TO          4 STEP          1

        2  AREAS (OF        6  DEFINED) SELECTED BY ASEL  COMMAND.

 SELECT      ELEMENTS CREATED FROM SELECTED AREAS.

       1040  ELEMENTS (OF       4060  DEFINED) SELECTED FROM
        2 SELECTED AREAS BY  ESLA  COMMAND.
 ALL ELEM COLORS DARK-GRAY                               

 SELECT ALL ENTITIES OF TYPE= ALL  AND BELOW

 SELECT      COMPONENT CASCA1                          
 ALL ELEM COLORS CYAN                                    

 SELECT ALL ENTITIES OF TYPE= ALL  AND BELOW
 The INISTATE,DEFINE command applied to         4060  elements out of the
        4060  selected elements

 ALL SELECT   FOR ITEM=LINE COMPONENT=    
  IN RANGE         1 TO         17 STEP          1

       17  LINES (OF       17  DEFINED) SELECTED BY LSEL COMMAND.

 SELECT       FOR ITEM=LOC  COMPONENT=X     BETWEEN  0.0000     AND  0.10000E-01
   KABS=  0.  TOLERANCE= 0.100000E-09

        2  LINES (OF       17  DEFINED) SELECTED BY LSEL  COMMAND.

 RESELECT     FOR ITEM=LOC  COMPONENT=Y     BETWEEN  0.0000     AND   53.333    
   KABS=  0.  TOLERANCE= 0.533333E-06

        2  LINES (OF       17  DEFINED) SELECTED BY LSEL  COMMAND.

 CONSTRAINT AT ALL SELECTED LINES
      DEFAULT AREAS    LOAD LABEL = SYMM

 ALL SELECT   FOR ITEM=LINE COMPONENT=    
  IN RANGE         1 TO         17 STEP          1

       17  LINES (OF       17  DEFINED) SELECTED BY LSEL COMMAND.

 SELECT       FOR ITEM=LOC  COMPONENT=X     BETWEEN  0.0000     AND   20.000    
   KABS=  0.  TOLERANCE= 0.200000E-06

       17  LINES (OF       17  DEFINED) SELECTED BY LSEL  COMMAND.

 RESELECT     FOR ITEM=LOC  COMPONENT=Y     BETWEEN  53.333     AND   53.333    
   KABS=  0.  TOLERANCE= 0.266667    

        3  LINES (OF       17  DEFINED) SELECTED BY LSEL  COMMAND.

 CONSTRAINT AT ALL SELECTED LINES
      DEFAULT AREAS    LOAD LABEL = SYMM

 ALL SELECT   FOR ITEM=LINE COMPONENT=    
  IN RANGE         1 TO         17 STEP          1

       17  LINES (OF       17  DEFINED) SELECTED BY LSEL COMMAND.

 SELECT       FOR ITEM=LOC  COMPONENT=X     BETWEEN  0.0000     AND   20.000    
   KABS=  0.  TOLERANCE= 0.200000E-06

       17  LINES (OF       17  DEFINED) SELECTED BY LSEL  COMMAND.

 RESELECT     FOR ITEM=LOC  COMPONENT=Y     BETWEEN  0.0000     AND   0.0000    
   KABS=  0.  TOLERANCE= 0.100000E-05

        3  LINES (OF       17  DEFINED) SELECTED BY LSEL  COMMAND.

 SURFACE LOAD ON ALL SELECTED LINES 
     LOAD LABEL = PRES
     VALI,  VALJ  =          30.000              30.000    

 ALL SELECT   FOR ITEM=LINE COMPONENT=    
  IN RANGE         1 TO         17 STEP          1

       17  LINES (OF       17  DEFINED) SELECTED BY LSEL COMMAND.

 SELECT       FOR ITEM=LOC  COMPONENT=X     BETWEEN  20.000     AND   20.000    
   KABS=  0.  TOLERANCE= 0.100000    

        2  LINES (OF       17  DEFINED) SELECTED BY LSEL  COMMAND.

 RESELECT     FOR ITEM=LOC  COMPONENT=Y     BETWEEN  0.0000     AND   53.333    
   KABS=  0.  TOLERANCE= 0.533333E-06

        2  LINES (OF       17  DEFINED) SELECTED BY LSEL  COMMAND.

 SURFACE LOAD ON ALL SELECTED LINES 
     LOAD LABEL = PRES
     VALI,  VALJ  =          30.000              30.000    

 *IF  matrev                            ( =   0.00000     )  NE  
      0                                 ( =   0.00000     )  THEN    

 *ENDIF

 PARAMETER I =     1.000000000    

 COORDINATE SYSTEM         11 DEFINITION.  TYPE= 0  (CARTESIAN)  
   XC,YC,ZC=  0.0000      53.333      0.0000    
   ANGLES=  180.00    0.00  180.00   PARAMETERS=   1.000   1.000
   ORIENTATION=  1.00 -0.00 -0.00  -0.00 -1.00  0.00  -0.00  0.00 -1.00

 ACTIVE COORDINATE SYSTEM SET TO        11  (CARTESIAN)  

 ALL SELECT   FOR ITEM=ELEM COMPONENT=    
  IN RANGE         1 TO       4060 STEP          1

       4060  ELEMENTS (OF       4060  DEFINED) SELECTED BY  ESEL  COMMAND.

 PARAMETER FI =     0.000000000    

 PARAMETER FF =     1.000000000    

 SELECT       FOR ITEM=CENT COMPONENT=Y     BETWEEN  0.0000     AND   1.0000    
   KABS=  0.  TOLERANCE=  0.00000    

         84  ELEMENTS (OF       4060  DEFINED) SELECTED BY  ESEL  COMMAND.

 RESELECT     FOR ITEM=CENT COMPONENT=X     BETWEEN  0.0000     AND   1.0000    
   KABS=  0.  TOLERANCE=  0.00000    

         24  ELEMENTS (OF       4060  DEFINED) SELECTED BY  ESEL  COMMAND.

 DEFINITION OF COMPONENT = LESC1     ENTITY=ELEM

 SELECT      COMPONENT LESC1                           

 *DO LOOP ON PARAMETER= I FROM  2.0000     TO  128.00     BY  1.0000    

 PARAMETER FI =     1.000000000    

 PARAMETER FF =     1.333333333    

 SELECT       FOR ITEM=CENT COMPONENT=Y     BETWEEN  1.0000     AND   1.3333    
   KABS=  0.  TOLERANCE=  0.00000    

         28  ELEMENTS (OF       4060  DEFINED) SELECTED BY  ESEL  COMMAND.

 RESELECT     FOR ITEM=CENT COMPONENT=X     BETWEEN  0.0000     AND   1.0000    
   KABS=  0.  TOLERANCE=  0.00000    

          8  ELEMENTS (OF       4060  DEFINED) SELECTED BY  ESEL  COMMAND.

 DEFINITION OF COMPONENT = LESC2     ENTITY=ELEM

 SELECT      COMPONENT LESC2                           

 *IF  matrev                            ( =   0.00000     )  NE  
      0                                 ( =   0.00000     )  THEN    

 *ENDIF

 *IF  i                                 ( =   2.00000     )  EQ  
      nesc                              ( =   128.000     )  THEN    

 *ENDIF

 *ENDDO  INDEX= I                               

 SELECT       FOR ITEM=CENT COMPONENT=Y     BETWEEN  0.0000     AND   43.333    
   KABS=  0.  TOLERANCE=  0.00000    

       3640  ELEMENTS (OF       4060  DEFINED) SELECTED BY  ESEL  COMMAND.

 RESELECT     FOR ITEM=CENT COMPONENT=X     BETWEEN  0.0000     AND   1.0000    
   KABS=  0.  TOLERANCE=  0.00000    

[...]
    EQUIL ITER   1 COMPLETED.  NEW TRIANG MATRIX.  MAX DOF INC=  0.4026E-03
     FORCE CONVERGENCE VALUE  =   45.25      CRITERION=   143.3     <<< CONVERGED
    >>> SOLUTION CONVERGED AFTER EQUILIBRIUM ITERATION   1
 *** LOAD STEP   127   SUBSTEP     2  COMPLETED.    CUM ITER =    263
 *** TIME =   8.60000         TIME INC =  0.333333E-01
 *** MAX PLASTIC STRAIN STEP = 0.2229E-02   CRITERION = 0.1500    

 *****  ANSYS SOLVE    COMMAND  *****

 *** ANSYS - ENGINEERING ANALYSIS SYSTEM  RELEASE 2021 R1          21.1     ***
 ANSYS Mechanical Enterprise                       
 00000000  VERSION=WINDOWS x64   14:55:12  APR 30, 2024 CP=   1104.938

  Re=1 matmacico=6 E1=20000 pr=30 matrev=0 E2=30303.3845 Vp=5                  



 SOLUTION MONITORING INFO IS WRITTEN TO FILE= file.mntr                                                                                                                                                                                                                                                           

     FORCE CONVERGENCE VALUE  =   99.08      CRITERION=   140.4    
     DISP CONVERGENCE VALUE   =  0.8003E-03  CRITERION=  0.1361E-02 <<< CONVERGED
    EQUIL ITER   1 COMPLETED.  NEW TRIANG MATRIX.  MAX DOF INC= -0.8003E-03
     FORCE CONVERGENCE VALUE  =   49.02      CRITERION=   143.3     <<< CONVERGED
    >>> SOLUTION CONVERGED AFTER EQUILIBRIUM ITERATION   1
 *** LOAD STEP   128   SUBSTEP     1  COMPLETED.    CUM ITER =    264
 *** TIME =   8.63333         TIME INC =  0.333333E-01
 *** MAX PLASTIC STRAIN STEP = 0.2195E-02   CRITERION = 0.1500    
 *** AUTO STEP TIME:  NEXT TIME INC = 0.33333E-01  UNCHANGED

     FORCE CONVERGENCE VALUE  =   87.20      CRITERION=   140.4    
     DISP CONVERGENCE VALUE   =  0.4039E-03  CRITERION=  0.1361E-02 <<< CONVERGED
    EQUIL ITER   1 COMPLETED.  NEW TRIANG MATRIX.  MAX DOF INC=  0.4039E-03
     FORCE CONVERGENCE VALUE  =   45.11      CRITERION=   143.3     <<< CONVERGED
    >>> SOLUTION CONVERGED AFTER EQUILIBRIUM ITERATION   1
 *** LOAD STEP   128   SUBSTEP     2  COMPLETED.    CUM ITER =    265
 *** TIME =   8.66667         TIME INC =  0.333333E-01
 *** MAX PLASTIC STRAIN STEP = 0.2448E-02   CRITERION = 0.1500    

 PARAMETER NP2 =     0.000000000    

 *IF  analise2                          ( =   0.00000     )  EQ  
      1                                 ( =   1.00000     )  THEN    

 *ENDIF

 FINISH SOLUTION PROCESSING


 ***** ROUTINE COMPLETED *****  CP =      1109.797



 *ENDIF

 RED=100% GREEN=100% BLUE=100%
  for color index  0.

 RED=0% GREEN=0% BLUE=0%
  for color index 15.

 JPEG quality setting = 100

 JPEG orientation is horizontal  

 JPEG pixels are in color       

 JPEG characters are bitmaps     

 GRAPHICS FILE PIXEL RESOLUTION =    800

 HIDDEN DISPLAY (FACE SORT) IN WINDOW  1

 *IF  analise2                          ( =   0.00000     )  EQ  
      1                                 ( =   1.00000     )  THEN    

 *ENDIF

 *** ANSYS - ENGINEERING ANALYSIS SYSTEM  RELEASE 2021 R1          21.1     ***
 ANSYS Mechanical Enterprise                       
 00000000  VERSION=WINDOWS x64   14:55:12  APR 30, 2024 CP=   1109.797

  Re=1 matmacico=6 E1=20000 pr=30 matrev=0 E2=30303.3845 Vp=5                  



          ***** ANSYS RESULTS INTERPRETATION (POST1) *****

 ALL SELECT   FOR ITEM=NODE COMPONENT=    
  IN RANGE         1 TO       4234 STEP          1

       4234  NODES (OF       4234  DEFINED) SELECTED BY NSEL  COMMAND.

 SELECT       FOR ITEM=LOC  COMPONENT=X     BETWEEN 0.99900     AND   1.0010    
   KABS=  0.  TOLERANCE= 0.200000E-10

        146  NODES (OF       4234  DEFINED) SELECTED BY  NSEL  COMMAND.

 RSYS KEY SET TO   5

 USE COORDINATE SYSTEM   5 FOR SOLUTION RESULTS

 PARAMETER NANALISES =     0.000000000    

 *GET  NANALISES  FROM  ACTI  ITEM=SET  NSET  VALUE=  128.000000    

 *GET  NCOUNT    FROM  NODE  ITEM=COUN       VALUE=  146.000000     

 *GET  NTOTAL    FROM  NODE  ITEM=NUM  MAX   VALUE=  1185.00000     

 SET PARAMETER DIMENSIONS ON  CONVERGENCE
  TYPE=TABL  DIMENSIONS=      146      130        1
                              

 SET PARAMETER DIMENSIONS ON  PRESSUREX
  TYPE=TABL  DIMENSIONS=      146      130        1
                              

 SET PARAMETER DIMENSIONS ON  PRESSUREY
  TYPE=TABL  DIMENSIONS=      146      130        1
                              

 SET PARAMETER DIMENSIONS ON  COORDY TYPE=ARRA  DIMENSIONS=  1185     1     1

 SET PARAMETER DIMENSIONS ON  U_X TYPE=ARRA  DIMENSIONS=  1185     1     1

 SET PARAMETER DIMENSIONS ON  S_X TYPE=ARRA  DIMENSIONS=  1185     1     1

 SET PARAMETER DIMENSIONS ON  S_Y TYPE=ARRA  DIMENSIONS=  1185     1     1

 SET PARAMETER DIMENSIONS ON  N_SEL TYPE=ARRA  DIMENSIONS=  1185     1     1

 VECTOR GET OPERATION  convergence(1,1)  VECTOR LENGTH=     146
 NAME= NODE         0  NLIS      

 VECTOR GET OPERATION  pressurex(1,1)  VECTOR LENGTH=     146
 NAME= NODE         0  NLIS      

 VECTOR GET OPERATION  pressurey(1,1)  VECTOR LENGTH=     146
 NAME= NODE         0  NLIS      

 VECTOR GET OPERATION  n_sel(1)  VECTOR LENGTH=    1185
 NAME= NODE         1  NSEL      

 VECTOR GET OPERATION  coordy(1)  VECTOR LENGTH=    1185
 NAME= NODE         1  LOC   Y   

 VECTOR PARAMETER OPERATION *VOPER  
  coordy(1)        = coordy(1)        MULT 1/Re            
  VECTOR LENGTH=    1185

 SET MASK VECTOR TO  N_SEL(1:1185)

 VECTOR PARAMETER OPERATION *VFUN   
  convergence(1,2) = COMP  coordy(1)
 VECTOR LENGTH=     146

 SET MASK VECTOR TO  N_SEL(1:1185)

 VECTOR PARAMETER OPERATION *VFUN   
  pressurex(1,2) = COMP  coordy(1)
 VECTOR LENGTH=     146

 SET MASK VECTOR TO  N_SEL(1:1185)

 VECTOR PARAMETER OPERATION *VFUN   
  pressurey(1,2) = COMP  coordy(1)
 VECTOR LENGTH=     146

 *DO LOOP ON PARAMETER= I FROM  1.0000     TO  128.00     BY  1.0000    

 *IF  i                                 ( =   1.00000     )  EQ  
      nanalises                         ( =   128.000     )  THEN    

 *ELSE

 *IF  matmacico                         ( =   6.00000     )  LE  
      1                                 ( =   1.00000     )          
 *****  AND   *****
      matrev                            ( =   0.00000     )  EQ  
      0                                 ( =   0.00000     )  THEN    

 *ELSE

 STORE RESULTS DATA FOR THE CURRENTLY SELECTED MODEL
 USE LOAD STEP     1  SUBSTEP  LAST    FOR LOAD CASE 0 

 SET COMMAND GOT LOAD STEP=     1  SUBSTEP=     8  CUMULATIVE ITERATION=    10
   TIME/FREQUENCY= 0.20000    
 TITLE=  Re=1 matmacico=6 E1=20000 pr=30 matrev=0 E2=30303.3845 Vp=5            

 *ENDIF

 *ENDIF

 SET MASK VECTOR TO  N_SEL(1:1185)

 VECTOR GET OPERATION  u_x(1)  VECTOR LENGTH=    1185
 NAME= NODE         1  U     X   

 VECTOR PARAMETER OPERATION *VOPER  
  u_x(1)           = u_x(1)           MULT -1/Re*100       
  VECTOR LENGTH=    1185

 SET MASK VECTOR TO  N_SEL(1:1185)

 VECTOR GET OPERATION  s_x(1)  VECTOR LENGTH=    1185
 NAME= NODE         1  S     X   

 VECTOR PARAMETER OPERATION *VOPER  
  s_x(1)           = s_x(1)           MULT 1               
  VECTOR LENGTH=    1185

 SET MASK VECTOR TO  N_SEL(1:1185)

 VECTOR GET OPERATION  s_y(1)  VECTOR LENGTH=    1185
 NAME= NODE         1  S     Y   

 VECTOR PARAMETER OPERATION *VOPER  
  s_y(1)           = s_y(1)           MULT 1               
  VECTOR LENGTH=    1185

 SET MASK VECTOR TO  N_SEL(1:1185)

 VECTOR PARAMETER OPERATION *VFUN   
  convergence(1,2+i) = COMP  u_x(1)
 VECTOR LENGTH=     146

 SET MASK VECTOR TO  N_SEL(1:1185)

 VECTOR PARAMETER OPERATION *VFUN   
  pressurex(1,2+i) = COMP  s_x(1)
 VECTOR LENGTH=     146

 SET MASK VECTOR TO  N_SEL(1:1185)

 VECTOR PARAMETER OPERATION *VFUN   
  pressurey(1,2+i) = COMP  s_y(1)
 VECTOR LENGTH=     146

 *ENDDO  INDEX= I                               

 ARRAY SORT OPERATION  RESULT ORDER VECTOR= ORDER           
  ARRAY NAME= convergence     
  SORT VECTOR= convergence(1,2)
 MATRIX SIZE=     146 ROWS  BY      130 COLUMNS

 ARRAY SORT OPERATION  RESULT ORDER VECTOR= ORDER           
  ARRAY NAME= pressurex       
  SORT VECTOR= pressurex(1,2)  
 MATRIX SIZE=     146 ROWS  BY      130 COLUMNS

 ARRAY SORT OPERATION  RESULT ORDER VECTOR= ORDER           
  ARRAY NAME= pressurey       
  SORT VECTOR= pressurey(1,2)  
 MATRIX SIZE=     146 ROWS  BY      130 COLUMNS

 VECTOR PARAMETER OPERATION *VSCFUN 
  UMAXIMOFINAL = MAX  convergence(1,2+
 VECTOR LENGTH=     146
 RESULT= 0.48227    

 VECTOR PARAMETER OPERATION *VSCFUN 
  SMAXIMOFINALX = MAX  pressurex(1,2+na
 VECTOR LENGTH=     146
 RESULT= -1.4285    

 VECTOR PARAMETER OPERATION *VSCFUN 
  SMINIMOFINALX = MIN  pressurex(1,2+na
 VECTOR LENGTH=     146
 RESULT= -42.798    

 VECTOR PARAMETER OPERATION *VSCFUN 
  SMAXIMOFINALY = MAX  pressurey(1,2+na
 VECTOR LENGTH=     146
 RESULT= -22.934    

 VECTOR PARAMETER OPERATION *VSCFUN 
  SMINIMOFINALY = MIN  pressurey(1,2+na
 VECTOR LENGTH=     146
 RESULT= -51.782    

 RED=100% GREEN=100% BLUE=100%
  for color index  0.

 RED=0% GREEN=0% BLUE=0%
  for color index 15.

 X AXIS LABEL = Y/Re                            

 Y AXIS LABEL = U=-u(r=Re)/Re (%)               
 CURVE X RANGE SET FROM    0.000     TO    53.33    
 CURVE  1 Y RANGE SET FROM    0.000     TO   0.5787    

 NUMBER OF Y-AXIS DIVISIONS FOR GRAPHS =20

 NUMBER OF X-AXIS DIVISIONS FOR GRAPHS =10

 DIG1 GRAPH LABEL PRECISION =  3

 CURV GRAPH CURVE LINE THICKNESS =  0
 INFO LEGEND DISPLAY = ON  

 ERASE OPTION SET

 /SHOW SWITCH PLOTS TO  JPEG        - RASTER MODE.

 *DO LOOP ON PARAMETER= I FROM  1.0000     TO  128.00     BY  1.0000    

 *IF  i                                 ( =   1.00000     )  EQ  
      nanalises                         ( =   128.000     )  THEN    

 *ELSEIF  i                                 ( =   1.00000     )  EQ  
          nesc                              ( =   128.000     )  THEN    

 *ELSE
 GRID CURVE COLOR    1 SET TO LIGHT-GRAY                       

 *ENDIF

 GRAPHIC DISPLAY OF MATRIX= convergence(1,2+i)
 VECTOR FOR X AXIS= convergence(1,2)
 NUMBER OF POINTS=   146  NUMBER OF CURVES=   1

 *** WARNING ***                         CP =    1115.766   TIME= 14:55:16
 The view for graph plots is currently NOT changeable.                   
  To enable graph view manipulation, issue /GROPTS,VIEW,1.               

 CUMULATIVE DISPLAY NUMBER   1 WRITTEN TO FILE file000.jpg       - RASTER MODE.
 DISPLAY TITLE= 
  Re=1 matmacico=6 E1=20000 pr=30 matrev=0 E2=30303.3845 Vp=5            

 NO ERASE OPTION SET

 *ENDDO  INDEX= I                               

 *** NOTE ***
 ANSYS JPEG software is based in part on the work of the Independent JPEG Group.
 IJG Version 6b  27-Mar-1998  Copyright (C) 1998, Thomas G. Lane

 ERASE OPTION SET

 RED=100% GREEN=100% BLUE=100%
  for color index  0.

 RED=0% GREEN=0% BLUE=0%
  for color index 15.

 X AXIS LABEL = Y/Re                            

 Y AXIS LABEL = Sx (MPa)                        
 CURVE X RANGE SET FROM    0.000     TO    53.33    
 CURVE  1 Y RANGE SET FROM   -51.36     TO   -1.714    

 NUMBER OF Y-AXIS DIVISIONS FOR GRAPHS =20

 NUMBER OF X-AXIS DIVISIONS FOR GRAPHS =10

 DIG1 GRAPH LABEL PRECISION =  3

 CURV GRAPH CURVE LINE THICKNESS =  0
 INFO LEGEND DISPLAY = ON  

 ERASE OPTION SET

 /SHOW SWITCH PLOTS TO  JPEG        - RASTER MODE.

 *DO LOOP ON PARAMETER= I FROM  1.0000     TO  128.00     BY  1.0000    

 *IF  i                                 ( =   1.00000     )  EQ  
      nanalises                         ( =   128.000     )  THEN    

 *ELSEIF  i                                 ( =   1.00000     )  EQ  
          nesc                              ( =   128.000     )  THEN    

 *ELSE
 GRID CURVE COLOR    1 SET TO LIGHT-GRAY                       

 *ENDIF

 GRAPHIC DISPLAY OF MATRIX= pressurex(1,2+i)
 VECTOR FOR X AXIS= pressurex(1,2)  
 NUMBER OF POINTS=   146  NUMBER OF CURVES=   1

 CUMULATIVE DISPLAY NUMBER   1 WRITTEN TO FILE file001.jpg       - RASTER MODE.
 DISPLAY TITLE= 
  Re=1 matmacico=6 E1=20000 pr=30 matrev=0 E2=30303.3845 Vp=5            

 NO ERASE OPTION SET

 *ENDDO  INDEX= I                               

 ERASE OPTION SET

 RED=100% GREEN=100% BLUE=100%
  for color index  0.

 RED=0% GREEN=0% BLUE=0%
  for color index 15.

 X AXIS LABEL = Y/Re                            

 Y AXIS LABEL = Sy (MPa)                        
 CURVE X RANGE SET FROM    0.000     TO    53.33    
 CURVE  1 Y RANGE SET FROM   -62.14     TO   -27.52    

 NUMBER OF Y-AXIS DIVISIONS FOR GRAPHS =20

 NUMBER OF X-AXIS DIVISIONS FOR GRAPHS =10

 DIG1 GRAPH LABEL PRECISION =  3

 CURV GRAPH CURVE LINE THICKNESS =  0
 INFO LEGEND DISPLAY = ON  

 ERASE OPTION SET

 /SHOW SWITCH PLOTS TO  JPEG        - RASTER MODE.

 *DO LOOP ON PARAMETER= I FROM  1.0000     TO  128.00     BY  1.0000    

 *IF  i                                 ( =   1.00000     )  EQ  
      nanalises                         ( =   128.000     )  THEN    

 *ELSEIF  i                                 ( =   1.00000     )  EQ  
          nesc                              ( =   128.000     )  THEN    

 *ELSE
 GRID CURVE COLOR    1 SET TO LIGHT-GRAY                       

 *ENDIF

 GRAPHIC DISPLAY OF MATRIX= pressurey(1,2+i)
 VECTOR FOR X AXIS= pressurey(1,2)  
 NUMBER OF POINTS=   146  NUMBER OF CURVES=   1

 CUMULATIVE DISPLAY NUMBER   1 WRITTEN TO FILE file002.jpg       - RASTER MODE.
 DISPLAY TITLE= 
  Re=1 matmacico=6 E1=20000 pr=30 matrev=0 E2=30303.3845 Vp=5            

 NO ERASE OPTION SET

 *ENDDO  INDEX= I                               

 ERASE OPTION SET

 START CREATE BY COPY FROM INPUT TO  ansuitmp

 END FILE CREATE

 /INPUT FILE= ansuitmp  LINE=       0

 MATRIX WRITE OPERATION  *MWRITE 
  convergence WRITE TO FILE convergencias.txt
 LOOP DIRECTIONS=JIK   COUNTS=     130     146       1       1       1
 FORMAT=(1000(E10.4,3X))                                                      

 START CREATE BY COPY FROM INPUT TO  ansuitmp

 END FILE CREATE

 /INPUT FILE= ansuitmp  LINE=       0

 MATRIX WRITE OPERATION  *MWRITE 
  pressurex WRITE TO FILE pressurex.txt
 LOOP DIRECTIONS=JIK   COUNTS=     130     146       1       1       1
 FORMAT=(1000(E10.4,3X))                                                      

 START CREATE BY COPY FROM INPUT TO  ansuitmp

 END FILE CREATE

 /INPUT FILE= ansuitmp  LINE=       0

 MATRIX WRITE OPERATION  *MWRITE 
  pressurey WRITE TO FILE pressurey.txt
 LOOP DIRECTIONS=JIK   COUNTS=     130     146       1       1       1
 FORMAT=(1000(E10.4,3X))                                                      

 *** NOTE ***                            CP =    1118.156   TIME= 14:55:26
 Write parameters to file= parametros.txt.                               

 *** NOTE ***                            CP =    1118.156   TIME= 14:55:26
 Parameters written.  Lines= 116.                                        

 ***** END OF INPUT ENCOUNTERED *****


 NUMBER OF WARNING MESSAGES ENCOUNTERED=          6
 NUMBER OF ERROR   MESSAGES ENCOUNTERED=          0



 ***** PROBLEM TERMINATED BY INDICATED ERROR(S) OR BY END OF INPUT DATA *****

 *** WARNING ***                         CP =    1118.156   TIME= 14:55:27
 During this session the elapsed time exceeds the CPU time by 64%.       
 Often this indicates either a lack of physical memory (RAM) required    
 to efficiently handle this simulation or it indicates a particularly    
 slow hard drive configuration.  This simulation can be expected to run  
 faster on identical hardware if additional RAM or a faster hard drive   
 configuration is made available.  For more details, please see the      
 ANSYS Performance Guide which is part of the ANSYS Help system.         

+--------------------- A N S Y S   S T A T I S T I C S ------------------------+

Release: 2021 R1            Build: 21.1       Update: UP20201109   Platform: WINDOWS x64 
Date Run: 04/30/2024   Time: 14:55     Process ID: 19436
Operating System: Windows 10  (Build: 19045)

Processor Model: AMD Ryzen 9 3900X 12-Core Processor

Compiler: Intel(R) FORTRAN Compiler Version 19.0.0  (Build: 20190206)
          Intel(R) C/C++ Compiler Version 19.0.0  (Build: 20190206)
          Intel(R) Math Kernel Library Version 2020.0.0 Product Build 20191125

Number of machines requested            :    1
Total number of cores available         :   24
Number of physical cores available      :   12
Number of processes requested           :    1
Number of threads per process requested :   12
Total number of cores requested         :   12 (Shared Memory Parallel)                    

GPU Acceleration: Not Requested

Job Name: file
Input File: E:\GUO_ETAL\AXI_MA_INSC_C30_FI30_D1_5_SIGMAV_SIGMAH_30\Script_AXI_2023.txt
Working Directory: E:\GUO_ETAL\AXI_MA_INSC_C30_FI30_D1_5_SIGMAV_SIGMAH_30

Total CPU time for main thread                    :       96.4 seconds
Total CPU time summed for all threads             :     1118.2 seconds

Elapsed time spent obtaining a license            :        1.1 seconds
Elapsed time spent pre-processing model (/PREP7)  :        0.3 seconds
Elapsed time spent solution - preprocessing       :        4.1 seconds
Elapsed time spent computing solution             :      110.2 seconds
Elapsed time spent solution - postprocessing      :        0.0 seconds
Elapsed time spent post-processing model (/POST1) :        0.0 seconds
 
Equation solver used                              :            Sparse (symmetric)
Equation solver computational rate                :        3.0 Gflops

Maximum total memory used                         :      170.0 MB
Maximum total memory allocated                    :     2112.0 MB
Total physical memory available                   :         32 GB

Total amount of I/O written to disk               :       14.3 GB
Total amount of I/O read from disk                :       16.6 GB

+------------------ E N D   A N S Y S   S T A T I S T I C S -------------------+


 *---------------------------------------------------------------------------*
 |                                                                           |
 |                            ANSYS RUN COMPLETED                            |
 |                                                                           |
 |---------------------------------------------------------------------------|
 |                                                                           |
 | Ansys 2021 R1               Build 21.1         UP20201109     WINDOWS x64 |
 |                                                                           |
 |---------------------------------------------------------------------------|
 |                                                                           |
 | Database Requested(-db)  1024 MB    Scratch Memory Requested      1024 MB |
 | Maximum Database Used      24 MB    Maximum Scratch Memory Used    146 MB |
 |                                                                           |
 |---------------------------------------------------------------------------|
 |                                                                           |
 |        CP Time      (sec) =       1118.156       Time  =  14:55:27        |
 |        Elapsed Time (sec) =        159.000       Date  =  04/30/2024      |
 |                                                                           |
 *---------------------------------------------------------------------------*
